##########                 Name:              smyd3_1
##########          Protonation:                 none
##########               SMILES:   O=C1CC2=C(C=CC(C(=O)NC34CC[NH+](CC3)C4)=C2)N1
##########            Long Name:   NO_LONG_NAME
##########          FlexRecCode: 1
##########               Number:                    3
##########   Ligand Source File: /proj/zinc22/users/x_andlu/OGG1/revisions/docking/targets/smyd3/db2gen/split_par
##########                 Rank:                    1
##########               Setnum:                   12
##########             Matchnum:                   16
##########                Cloud:                    1
##########        Electrostatic:           -27.503437
##########                 Gist:             0.000000
##########        Van der Waals:           -27.402164
##########  Ligand Polar Desolv:             8.952787
########## Ligand Apolar Desolv:            -1.564905
##########      Internal Energy:             0.000000
##########      Receptor Energy:             0.000000
########## Receptor Desolvation:             0.000000
########## Receptor Hydrophobic:             0.000000
##########         Total Energy:           -47.517715
##########        Ligand Charge:             1.000000
##########            Arbitrary:    +999.9990
##########        Ligand Energy:             0.000000

@<TRIPOS>MOLECULE
smyd3_1      none
   38    41     0     0     0
SMALL
USER_CHARGES

@<TRIPOS>ATOM
      1 O1         11.4374   10.0629   16.9003 O.2       1 <0>        -0.4800
      2 C1         12.0839    9.0383   16.8451 C.2       1 <0>         0.5300
      3 C2         13.0280    8.6297   15.7344 C.3       1 <0>        -0.1200
      4 C3         13.5525    7.2829   16.1776 C.ar      1 <0>        -0.1500
      5 C4         12.9448    7.0102   17.3999 C.ar      1 <0>         0.1900
      6 C5         13.2440    5.8144   18.0568 C.ar      1 <0>        -0.1500
      7 C6         14.1242    4.9176   17.4995 C.ar      1 <0>        -0.0400
      8 C7         14.7351    5.1999   16.2744 C.ar      1 <0>        -0.1800
      9 C8         15.6838    4.2393   15.6780 C.2       1 <0>         0.5800
     10 O2         15.8331    4.2013   14.4719 O.2       1 <0>        -0.5200
     11 N1         16.3847    3.4041   16.4703 N.am      1 <0>        -0.7100
     12 C9         17.3262    2.4506   15.8783 C.3       1 <0>         0.1600
     13 C10        16.7183    1.3384   14.9645 C.3       1 <0>        -0.1500
     14 C11        17.8431    0.2587   14.9489 C.3       1 <0>         0.0000
     15 N2         18.9289    0.8018   15.8205 N.4       1 <0>        -0.4100
     16 H1         19.5729    0.1119   16.1773 H         1 <0>         0.4400
     17 C12        19.5611    1.9132   15.0466 C.3       1 <0>         0.0000
     18 C13        18.5013    3.0511   15.0415 C.3       1 <0>        -0.1500
     19 C14        18.1495    1.5493   16.8678 C.3       1 <0>        -0.0000
     20 C15        14.4364    6.3965   15.6151 C.ar      1 <0>         0.0100
     21 N3         12.0967    8.0528   17.7580 N.am      1 <0>        -0.6600
     22 H2         13.8440    9.3466   15.6434 H         1 <0>         0.1300
     23 H3         12.4908    8.5387   14.7903 H         1 <0>         0.1300
     24 H4         12.7787    5.5917   19.0057 H         1 <0>         0.1400
     25 H5         14.3474    3.9934   18.0117 H         1 <0>         0.1300
     26 H6         16.2685    3.4372   17.4328 H         1 <0>         0.4100
     27 H7         15.7920    0.9536   15.3910 H         1 <0>         0.1100
     28 H8         16.5509    1.7175   13.9564 H         1 <0>         0.1200
     29 H9         18.2152    0.1005   13.9366 H         1 <0>         0.1400
     30 H10        17.4603   -0.6753   15.3602 H         1 <0>         0.1300
     31 H11        20.4816    2.2360   15.5330 H         1 <0>         0.1400
     32 H12        19.7668    1.5926   14.0252 H         1 <0>         0.1300
     33 H13        18.1746    3.2773   14.0265 H         1 <0>         0.1200
     34 H14        18.9024    3.9418   15.5252 H         1 <0>         0.1100
     35 H15        18.7990    2.1413   17.5125 H         1 <0>         0.1400
     36 H16        17.5053    0.8863   17.4454 H         1 <0>         0.1500
     37 H17        14.8996    6.6222   14.6658 H         1 <0>         0.1500
     38 H18        11.5731    8.0665   18.5745 H         1 <0>         0.4200
@<TRIPOS>BOND
     1    1    2 2
     2    2   21 am
     3    2    3 1
     4    3    4 1
     5    3   22 1
     6    3   23 1
     7    4   20 ar
     8    4    5 ar
     9    5    6 ar
    10    5   21 1
    11    6    7 ar
    12    6   24 1
    13    7    8 ar
    14    7   25 1
    15    8    9 1
    16    8   20 ar
    17    9   10 2
    18    9   11 am
    19   11   12 1
    20   11   26 1
    21   12   18 1
    22   12   19 1
    23   12   13 1
    24   13   14 1
    25   13   27 1
    26   13   28 1
    27   14   15 1
    28   14   29 1
    29   14   30 1
    30   15   16 1
    31   15   17 1
    32   15   19 1
    33   17   18 1
    34   17   31 1
    35   17   32 1
    36   18   33 1
    37   18   34 1
    38   19   35 1
    39   19   36 1
    40   20   37 1
    41   21   38 1
##########                 Name:              smyd3_2
##########          Protonation:                 none
##########               SMILES:   O=C1CC(NC(=O)C2=CC3=C(C=C2)NC(=O)C3)CCN1
##########            Long Name:   NO_LONG_NAME
##########          FlexRecCode: 1
##########               Number:                    6
##########   Ligand Source File: /proj/zinc22/users/x_andlu/OGG1/revisions/docking/targets/smyd3/db2gen/split_par
##########                 Rank:                    1
##########               Setnum:                   10
##########             Matchnum:                   16
##########                Cloud:                    1
##########        Electrostatic:           -22.234959
##########                 Gist:             0.000000
##########        Van der Waals:           -26.458870
##########  Ligand Polar Desolv:             7.822413
########## Ligand Apolar Desolv:            -0.581783
##########      Internal Energy:             0.000000
##########      Receptor Energy:             0.000000
########## Receptor Desolvation:             0.000000
########## Receptor Hydrophobic:             0.000000
##########         Total Energy:           -41.453197
##########        Ligand Charge:             0.000000
##########            Arbitrary:    +999.9990
##########        Ligand Energy:             0.000000

@<TRIPOS>MOLECULE
smyd3_2      none
   35    37     0     0     0
SMALL
USER_CHARGES

@<TRIPOS>ATOM
      1 O1         20.9683    3.6217   13.9603 O.2       1 <0>        -0.5500
      2 C1         19.9503    3.1048   14.3695 C.2       1 <0>         0.5200
      3 C2         19.0146    3.9366   15.1989 C.3       1 <0>        -0.1500
      4 C3         18.0506    3.0279   15.9658 C.3       1 <0>         0.1400
      5 N1         16.9772    3.8325   16.5544 N.am      1 <0>        -0.7200
      6 C4         16.1762    4.5710   15.7611 C.2       1 <0>         0.5700
      7 O2         16.3444    4.5695   14.5569 O.2       1 <0>        -0.5300
      8 C5         15.0946    5.3817   16.3541 C.ar      1 <0>        -0.1600
      9 C6         14.6393    6.5328   15.7033 C.ar      1 <0>        -0.0000
     10 C7         13.6328    7.2794   16.2626 C.ar      1 <0>        -0.1500
     11 C8         13.0540    6.9090   17.4731 C.ar      1 <0>         0.1700
     12 C9         13.5097    5.7588   18.1216 C.ar      1 <0>        -0.1500
     13 C10        14.5140    5.0013   17.5673 C.ar      1 <0>        -0.0500
     14 N2         12.0635    7.8179   17.8302 N.am      1 <0>        -0.6600
     15 C11        11.9240    8.8031   16.9278 C.2       1 <0>         0.5300
     16 O3         11.1395    9.7263   16.9846 O.2       1 <0>        -0.4900
     17 C12        12.9300    8.5448   15.8263 C.3       1 <0>        -0.1200
     18 C13        17.4555    2.0129   14.9824 C.3       1 <0>        -0.1500
     19 C14        18.5644    1.0685   14.5171 C.3       1 <0>         0.1100
     20 N3         19.7218    1.8281   14.0592 N.am      1 <0>        -0.7200
     21 H1         18.4459    4.6000   14.5474 H         1 <0>         0.1000
     22 H2         19.5907    4.5327   15.9067 H         1 <0>         0.1100
     23 H3         18.5897    2.5024   16.7542 H         1 <0>         0.1000
     24 H4         16.8430    3.8338   17.5150 H         1 <0>         0.4000
     25 H5         15.0780    6.8329   14.7632 H         1 <0>         0.1500
     26 H6         13.0684    5.4613   19.0614 H         1 <0>         0.1400
     27 H7         14.8582    4.1112   18.0729 H         1 <0>         0.1400
     28 H8         11.5329    7.7479   18.6393 H         1 <0>         0.4200
     29 H9         13.6384    9.3700   15.7544 H         1 <0>         0.1300
     30 H10        12.4228    8.3912   14.8737 H         1 <0>         0.1300
     31 H11        16.6713    1.4402   15.4778 H         1 <0>         0.1000
     32 H12        17.0377    2.5378   14.1233 H         1 <0>         0.0800
     33 H13        18.8626    0.4267   15.3461 H         1 <0>         0.0700
     34 H14        18.1912    0.4486   13.7018 H         1 <0>         0.0900
     35 H15        20.3650    1.3764   13.4905 H         1 <0>         0.4000
@<TRIPOS>BOND
     1    1    2 2
     2    2   20 am
     3    2    3 1
     4    3    4 1
     5    3   21 1
     6    3   22 1
     7    4    5 1
     8    4   18 1
     9    4   23 1
    10    5    6 am
    11    5   24 1
    12    6    7 2
    13    6    8 1
    14    8   13 ar
    15    8    9 ar
    16    9   10 ar
    17    9   25 1
    18   10   17 1
    19   10   11 ar
    20   11   12 ar
    21   11   14 1
    22   12   13 ar
    23   12   26 1
    24   13   27 1
    25   14   15 am
    26   14   28 1
    27   15   16 2
    28   15   17 1
    29   17   29 1
    30   17   30 1
    31   18   19 1
    32   18   31 1
    33   18   32 1
    34   19   20 1
    35   19   33 1
    36   19   34 1
    37   20   35 1
##########                 Name:              smyd3_3
##########          Protonation:                 none
##########               SMILES:   C[NH+]1CCC(NC(=O)C2=CC=C3NC(=O)CC3=C2)CC1
##########            Long Name:   NO_LONG_NAME
##########          FlexRecCode: 1
##########               Number:                    7
##########   Ligand Source File: /proj/zinc22/users/x_andlu/OGG1/revisions/docking/targets/smyd3/db2gen/split_par
##########                 Rank:                    1
##########               Setnum:                    4
##########             Matchnum:                    7
##########                Cloud:                    1
##########        Electrostatic:           -28.022985
##########                 Gist:             0.000000
##########        Van der Waals:           -27.857010
##########  Ligand Polar Desolv:             9.576385
########## Ligand Apolar Desolv:            -1.616144
##########      Internal Energy:             0.000000
##########      Receptor Energy:             0.000000
########## Receptor Desolvation:             0.000000
########## Receptor Hydrophobic:             0.000000
##########         Total Energy:           -47.919754
##########        Ligand Charge:             1.000000
##########            Arbitrary:    +999.9990
##########        Ligand Energy:             0.000000

@<TRIPOS>MOLECULE
smyd3_3      none
   40    42     0     0     0
SMALL
USER_CHARGES

@<TRIPOS>ATOM
      1 C1         20.9740    0.1918   15.4718 C.3       1 <0>        -0.0500
      2 N1         19.9538    1.1136   15.9889 N.4       1 <0>        -0.3900
      3 H1         20.2334    1.4466   16.8993 H         1 <0>         0.4200
      4 C2         19.8168    2.2528   15.0735 C.3       1 <0>        -0.0000
      5 C3         18.8141    3.2558   15.6480 C.3       1 <0>        -0.1600
      6 C4         17.4555    2.5702   15.8191 C.3       1 <0>         0.1400
      7 N2         16.5109    3.5025   16.4393 N.am      1 <0>        -0.7300
      8 C5         15.7513    4.3051   15.6677 C.2       1 <0>         0.5700
      9 O1         15.8500    4.2553   14.4570 O.2       1 <0>        -0.5300
     10 C6         14.7996    5.2443   16.2927 C.ar      1 <0>        -0.1800
     11 C7         14.2553    4.9631   17.5484 C.ar      1 <0>        -0.0500
     12 C8         13.3680    5.8380   18.1301 C.ar      1 <0>        -0.1500
     13 C9         13.0035    7.0142   17.4718 C.ar      1 <0>         0.1900
     14 N3         12.1392    8.0350   17.8530 N.am      1 <0>        -0.6600
     15 C10        12.0565    9.0069   16.9293 C.2       1 <0>         0.5300
     16 O2         11.3806   10.0114   16.9993 O.2       1 <0>        -0.4800
     17 C11        12.9647    8.6125   15.7840 C.3       1 <0>        -0.1200
     18 C12        13.5529    7.2895   16.2188 C.ar      1 <0>        -0.1500
     19 C13        14.4355    6.4224   15.6317 C.ar      1 <0>         0.0000
     20 C14        17.6247    1.3404   16.7157 C.3       1 <0>        -0.1600
     21 C15        18.6715    0.4083   16.1017 C.3       1 <0>        -0.0000
     22 H2         20.6729   -0.1686   14.4881 H         1 <0>         0.1200
     23 H3         21.9277    0.7134   15.3913 H         1 <0>         0.1200
     24 H4         21.0784   -0.6534   16.1520 H         1 <0>         0.1200
     25 H5         19.4625    1.8996   14.1051 H         1 <0>         0.1300
     26 H6         20.7853    2.7377   14.9508 H         1 <0>         0.1400
     27 H7         18.7125    4.1000   14.9661 H         1 <0>         0.1200
     28 H8         19.1673    3.6105   16.6163 H         1 <0>         0.0900
     29 H9         17.0771    2.2626   14.8441 H         1 <0>         0.1100
     30 H10        16.4321    3.5421   17.4053 H         1 <0>         0.4100
     31 H11        14.5322    4.0554   18.0640 H         1 <0>         0.1300
     32 H12        12.9506    5.6139   19.1006 H         1 <0>         0.1400
     33 H13        11.6510    8.0441   18.6912 H         1 <0>         0.4200
     34 H14        12.3907    8.4921   14.8652 H         1 <0>         0.1300
     35 H15        13.7516    9.3542   15.6475 H         1 <0>         0.1300
     36 H16        14.8503    6.6488   14.6606 H         1 <0>         0.1500
     37 H17        17.9536    1.6546   17.7063 H         1 <0>         0.0900
     38 H18        16.6729    0.8155   16.7971 H         1 <0>         0.1200
     39 H19        18.3415    0.0945   15.1113 H         1 <0>         0.1300
     40 H20        18.7942   -0.4682   16.7379 H         1 <0>         0.1300
@<TRIPOS>BOND
     1    1    2 1
     2    1   22 1
     3    1   23 1
     4    1   24 1
     5    2    3 1
     6    2   21 1
     7    2    4 1
     8    4    5 1
     9    4   25 1
    10    4   26 1
    11    5    6 1
    12    5   27 1
    13    5   28 1
    14    6    7 1
    15    6   20 1
    16    6   29 1
    17    7    8 am
    18    7   30 1
    19    8    9 2
    20    8   10 1
    21   10   19 ar
    22   10   11 ar
    23   11   12 ar
    24   11   31 1
    25   12   13 ar
    26   12   32 1
    27   13   18 ar
    28   13   14 1
    29   14   15 am
    30   14   33 1
    31   15   16 2
    32   15   17 1
    33   17   18 1
    34   17   34 1
    35   17   35 1
    36   18   19 ar
    37   19   36 1
    38   20   21 1
    39   20   37 1
    40   20   38 1
    41   21   39 1
    42   21   40 1
##########                 Name:              smyd3_5
##########          Protonation:                 none
##########               SMILES:   O=C1CC2=CC(C(=O)NC34CC[NH+](CC3)C4)=C(Cl)C=C2N1
##########            Long Name:   NO_LONG_NAME
##########          FlexRecCode: 1
##########               Number:                   14
##########   Ligand Source File: /proj/zinc22/users/x_andlu/OGG1/revisions/docking/targets/smyd3/db2gen/split_par
##########                 Rank:                    1
##########               Setnum:                    5
##########             Matchnum:                    7
##########                Cloud:                    1
##########        Electrostatic:           -26.744057
##########                 Gist:             0.000000
##########        Van der Waals:           -31.273876
##########  Ligand Polar Desolv:            13.855572
########## Ligand Apolar Desolv:            -1.662156
##########      Internal Energy:             0.000000
##########      Receptor Energy:             0.000000
########## Receptor Desolvation:             0.000000
########## Receptor Hydrophobic:             0.000000
##########         Total Energy:           -45.824516
##########        Ligand Charge:             1.000000
##########            Arbitrary:    +999.9990
##########        Ligand Energy:             0.000000

@<TRIPOS>MOLECULE
smyd3_5      none
   38    41     0     0     0
SMALL
USER_CHARGES

@<TRIPOS>ATOM
      1 O1         11.8631   10.0458   16.9542 O.2       1 <0>        -0.4800
      2 C1         12.4886    9.0104   16.8682 C.2       1 <0>         0.5300
      3 C2         13.5958    8.7084   15.8808 C.3       1 <0>        -0.1100
      4 C3         14.0125    7.2953   16.2196 C.ar      1 <0>        -0.1500
      5 C4         14.9625    6.4546   15.6978 C.ar      1 <0>        -0.0200
      6 C5         15.1204    5.1692   16.2274 C.ar      1 <0>        -0.1700
      7 C6         16.1352    4.2551   15.6699 C.2       1 <0>         0.5800
      8 O2         16.0791    3.9242   14.5012 O.2       1 <0>        -0.5000
      9 N1         17.1279    3.7910   16.4547 N.am      1 <0>        -0.7000
     10 C7         18.1391    2.8880   15.8995 C.3       1 <0>         0.1600
     11 C8         17.6181    1.5719   15.2377 C.3       1 <0>        -0.1400
     12 C9         18.8362    1.1539   14.3150 C.3       1 <0>        -0.0000
     13 N2         19.8699    2.2083   14.5456 N.4       1 <0>        -0.4100
     14 H1         20.5771    2.2747   13.8289 H         1 <0>         0.4400
     15 C10        20.3911    1.9589   15.9239 C.3       1 <0>         0.0000
     16 C11        19.2548    2.3968   16.8771 C.3       1 <0>        -0.1500
     17 C12        19.0406    3.4482   14.7409 C.3       1 <0>         0.0000
     18 C13        14.3125    4.7595   17.2931 C.ar      1 <0>         0.0600
     19 Cl1        14.5039    3.1692   17.9626 Cl        1 <0>        -0.0100
     20 C14        13.3657    5.6136   17.8125 C.ar      1 <0>        -0.1400
     21 C15        13.2043    6.8938   17.2805 C.ar      1 <0>         0.2000
     22 N3         12.3297    7.9167   17.6317 N.am      1 <0>        -0.6600
     23 H2         13.2211    8.7616   14.8584 H         1 <0>         0.1300
     24 H3         14.4287    9.3980   16.0178 H         1 <0>         0.1300
     25 H4         15.5843    6.7825   14.8778 H         1 <0>         0.1400
     26 H5         17.1728    4.0550   17.3870 H         1 <0>         0.4100
     27 H6         17.4290    0.8096   15.9934 H         1 <0>         0.1200
     28 H7         16.7197    1.7654   14.6515 H         1 <0>         0.1100
     29 H8         18.5346    1.1436   13.2675 H         1 <0>         0.1300
     30 H9         19.2220    0.1769   14.6059 H         1 <0>         0.1400
     31 H10        21.2854    2.5557   16.1031 H         1 <0>         0.1300
     32 H11        20.6111    0.9000   16.0600 H         1 <0>         0.1400
     33 H12        19.5862    3.2101   17.5228 H         1 <0>         0.1100
     34 H13        18.9019    1.5544   17.4718 H         1 <0>         0.1200
     35 H14        18.4549    3.7056   13.8583 H         1 <0>         0.1500
     36 H15        19.6564    4.2841   15.0728 H         1 <0>         0.1400
     37 H16        12.7447    5.2913   18.6353 H         1 <0>         0.1500
     38 H17        11.6784    7.8481   18.3473 H         1 <0>         0.4200
@<TRIPOS>BOND
     1    1    2 2
     2    2   22 am
     3    2    3 1
     4    3    4 1
     5    3   23 1
     6    3   24 1
     7    4   21 ar
     8    4    5 ar
     9    5    6 ar
    10    5   25 1
    11    6    7 1
    12    6   18 ar
    13    7    8 2
    14    7    9 am
    15    9   10 1
    16    9   26 1
    17   10   16 1
    18   10   17 1
    19   10   11 1
    20   11   12 1
    21   11   27 1
    22   11   28 1
    23   12   13 1
    24   12   29 1
    25   12   30 1
    26   13   14 1
    27   13   15 1
    28   13   17 1
    29   15   16 1
    30   15   31 1
    31   15   32 1
    32   16   33 1
    33   16   34 1
    34   17   35 1
    35   17   36 1
    36   18   19 1
    37   18   20 ar
    38   20   21 ar
    39   20   37 1
    40   21   22 1
    41   22   38 1
##########                 Name:              smyd3_6
##########          Protonation:                 none
##########               SMILES:   O=C1CC(NC(=O)C2=C(Cl)C=C3NC(=O)CC3=C2)CCN1
##########            Long Name:   NO_LONG_NAME
##########          FlexRecCode: 1
##########               Number:                   15
##########   Ligand Source File: /proj/zinc22/users/x_andlu/OGG1/revisions/docking/targets/smyd3/db2gen/split_par
##########                 Rank:                    1
##########               Setnum:                    2
##########             Matchnum:                    4
##########                Cloud:                    1
##########        Electrostatic:           -20.916393
##########                 Gist:             0.000000
##########        Van der Waals:           -29.607300
##########  Ligand Polar Desolv:             8.223771
########## Ligand Apolar Desolv:            -0.924693
##########      Internal Energy:             0.000000
##########      Receptor Energy:             0.000000
########## Receptor Desolvation:             0.000000
########## Receptor Hydrophobic:             0.000000
##########         Total Energy:           -43.224617
##########        Ligand Charge:             0.000000
##########            Arbitrary:    +999.9990
##########        Ligand Energy:             0.000000

@<TRIPOS>MOLECULE
smyd3_6      none
   35    37     0     0     0
SMALL
USER_CHARGES

@<TRIPOS>ATOM
      1 O1         22.0413    3.1775   15.9612 O.2       1 <0>        -0.5500
      2 C1         20.8729    2.9220   15.7593 C.2       1 <0>         0.5200
      3 C2         19.8363    3.8773   16.2795 C.3       1 <0>        -0.1500
      4 C3         18.5017    3.6323   15.5712 C.3       1 <0>         0.1500
      5 N1         17.4364    4.3660   16.2589 N.am      1 <0>        -0.7200
      6 C4         16.3655    4.8043   15.5680 C.2       1 <0>         0.5600
      7 O2         16.2833    4.5907   14.3738 O.2       1 <0>        -0.5100
      8 C5         15.2928    5.5433   16.2607 C.ar      1 <0>        -0.1600
      9 C6         14.5864    4.9429   17.3080 C.ar      1 <0>         0.0500
     10 Cl1        14.9725    3.3221   17.7953 Cl        1 <0>        -0.0100
     11 C7         13.5895    5.6360   17.9575 C.ar      1 <0>        -0.1400
     12 C8         13.2680    6.9374   17.5690 C.ar      1 <0>         0.1900
     13 N2         12.3129    7.8200   18.0624 N.am      1 <0>        -0.6600
     14 C9         12.3166    8.9946   17.4106 C.2       1 <0>         0.5300
     15 O3         11.5929    9.9425   17.6306 O.2       1 <0>        -0.4900
     16 C10        13.3938    8.9132   16.3499 C.3       1 <0>        -0.1100
     17 C11        13.9717    7.5268   16.5213 C.ar      1 <0>        -0.1500
     18 C12        14.9706    6.8479   15.8711 C.ar      1 <0>        -0.0200
     19 C13        18.2008    2.1292   15.6090 C.3       1 <0>        -0.1500
     20 C14        19.2229    1.4031   14.7334 C.3       1 <0>         0.1100
     21 N3         20.5774    1.8090   15.0869 N.am      1 <0>        -0.7200
     22 H1         20.1614    4.9012   16.0954 H         1 <0>         0.1100
     23 H2         19.7105    3.7259   17.3515 H         1 <0>         0.1000
     24 H3         18.5687    3.9673   14.5360 H         1 <0>         0.1000
     25 H4         17.5019    4.5364   17.2116 H         1 <0>         0.4000
     26 H5         13.0508    5.1687   18.7685 H         1 <0>         0.1500
     27 H6         11.7119    7.6110   18.7945 H         1 <0>         0.4200
     28 H7         14.1587    9.6702   16.5230 H         1 <0>         0.1300
     29 H8         12.9606    9.0264   15.3560 H         1 <0>         0.1300
     30 H9         15.5067    7.3190   15.0604 H         1 <0>         0.1400
     31 H10        18.2749    1.7671   16.6344 H         1 <0>         0.0800
     32 H11        17.1955    1.9478   15.2288 H         1 <0>         0.1000
     33 H12        19.1203    0.3274   14.8765 H         1 <0>         0.0900
     34 H13        19.0385    1.6466   13.6871 H         1 <0>         0.0700
     35 H14        21.3097    1.2333   14.8163 H         1 <0>         0.4000
@<TRIPOS>BOND
     1    1    2 2
     2    2   21 am
     3    2    3 1
     4    3    4 1
     5    3   22 1
     6    3   23 1
     7    4    5 1
     8    4   19 1
     9    4   24 1
    10    5    6 am
    11    5   25 1
    12    6    7 2
    13    6    8 1
    14    8   18 ar
    15    8    9 ar
    16    9   10 1
    17    9   11 ar
    18   11   12 ar
    19   11   26 1
    20   12   17 ar
    21   12   13 1
    22   13   14 am
    23   13   27 1
    24   14   15 2
    25   14   16 1
    26   16   17 1
    27   16   28 1
    28   16   29 1
    29   17   18 ar
    30   18   30 1
    31   19   20 1
    32   19   31 1
    33   19   32 1
    34   20   21 1
    35   20   33 1
    36   20   34 1
    37   21   35 1
##########                 Name:              smyd3_7
##########          Protonation:                 none
##########               SMILES:   C[NH+]1CCC(NC(=O)C2=CC3=C(C=C2Cl)NC(=O)C3)CC1
##########            Long Name:   NO_LONG_NAME
##########          FlexRecCode: 1
##########               Number:                   18
##########   Ligand Source File: /proj/zinc22/users/x_andlu/OGG1/revisions/docking/targets/smyd3/db2gen/split_par
##########                 Rank:                    1
##########               Setnum:                    2
##########             Matchnum:                    2
##########                Cloud:                    1
##########        Electrostatic:           -24.014811
##########                 Gist:             0.000000
##########        Van der Waals:           -30.268505
##########  Ligand Polar Desolv:             9.686049
########## Ligand Apolar Desolv:            -1.963072
##########      Internal Energy:             0.000000
##########      Receptor Energy:             0.000000
########## Receptor Desolvation:             0.000000
########## Receptor Hydrophobic:             0.000000
##########         Total Energy:           -46.560341
##########        Ligand Charge:             1.000000
##########            Arbitrary:    +999.9990
##########        Ligand Energy:             0.000000

@<TRIPOS>MOLECULE
smyd3_7      none
   40    42     0     0     0
SMALL
USER_CHARGES

@<TRIPOS>ATOM
      1 C1         20.4278   -0.4393   15.3509 C.3       1 <0>        -0.0500
      2 N1         19.5010    0.5656   15.8885 N.4       1 <0>        -0.3900
      3 H1         19.3999    0.4302   16.8833 H         1 <0>         0.4200
      4 C2         20.0344    1.9086   15.6307 C.3       1 <0>        -0.0000
      5 C3         19.1137    2.9566   16.2596 C.3       1 <0>        -0.1600
      6 C4         17.7159    2.8343   15.6460 C.3       1 <0>         0.1400
      7 N2         16.8100    3.7836   16.2975 N.am      1 <0>        -0.7300
      8 C5         15.7731    4.3044   15.6120 C.2       1 <0>         0.5700
      9 O1         15.5895    3.9865   14.4527 O.2       1 <0>        -0.5000
     10 C6         14.8610    5.2604   16.2680 C.ar      1 <0>        -0.1700
     11 C7         14.7058    6.5523   15.7547 C.ar      1 <0>        -0.0200
     12 C8         13.8508    7.4323   16.3688 C.ar      1 <0>        -0.1500
     13 C9         13.1303    7.0604   17.5007 C.ar      1 <0>         0.2000
     14 C10        13.2850    5.7709   18.0129 C.ar      1 <0>        -0.1400
     15 C11        14.1402    4.8799   17.4053 C.ar      1 <0>         0.0600
     16 Cl1        14.3246    3.2792   18.0514 Cl        1 <0>        -0.0100
     17 N3         12.3392    8.1186   17.9357 N.am      1 <0>        -0.6600
     18 C12        12.4732    9.2090   17.1625 C.2       1 <0>         0.5300
     19 O2         11.9044   10.2701   17.3089 O.2       1 <0>        -0.4800
     20 C13        13.4670    8.8644   16.0735 C.3       1 <0>        -0.1100
     21 C14        17.1990    1.4078   15.8541 C.3       1 <0>        -0.1600
     22 C15        18.1916    0.4171   15.2418 C.3       1 <0>        -0.0000
     23 H2         20.5378   -0.2940   14.2762 H         1 <0>         0.1200
     24 H3         21.3995   -0.3325   15.8331 H         1 <0>         0.1200
     25 H4         20.0340   -1.4370   15.5441 H         1 <0>         0.1200
     26 H5         20.0929    2.0755   14.5552 H         1 <0>         0.1300
     27 H6         21.0303    1.9926   16.0657 H         1 <0>         0.1400
     28 H7         19.5105    3.9531   16.0656 H         1 <0>         0.1200
     29 H8         19.0546    2.7915   17.3355 H         1 <0>         0.0900
     30 H9         17.7661    3.0517   14.5790 H         1 <0>         0.1100
     31 H10        16.9566    4.0373   17.2221 H         1 <0>         0.4000
     32 H11        15.2572    6.8561   14.8771 H         1 <0>         0.1400
     33 H12        12.7314    5.4712   18.8905 H         1 <0>         0.1500
     34 H13        11.7564    8.0744   18.7098 H         1 <0>         0.4200
     35 H14        14.3401    9.5142   16.1335 H         1 <0>         0.1300
     36 H15        12.9997    8.9402   15.0917 H         1 <0>         0.1300
     37 H16        17.0992    1.2089   16.9211 H         1 <0>         0.0900
     38 H17        16.2283    1.2982   15.3704 H         1 <0>         0.1200
     39 H18        18.2894    0.6157   14.1746 H         1 <0>         0.1300
     40 H19        17.8271   -0.5995   15.3898 H         1 <0>         0.1300
@<TRIPOS>BOND
     1    1    2 1
     2    1   23 1
     3    1   24 1
     4    1   25 1
     5    2    3 1
     6    2   22 1
     7    2    4 1
     8    4    5 1
     9    4   26 1
    10    4   27 1
    11    5    6 1
    12    5   28 1
    13    5   29 1
    14    6    7 1
    15    6   21 1
    16    6   30 1
    17    7    8 am
    18    7   31 1
    19    8    9 2
    20    8   10 1
    21   10   15 ar
    22   10   11 ar
    23   11   12 ar
    24   11   32 1
    25   12   20 1
    26   12   13 ar
    27   13   14 ar
    28   13   17 1
    29   14   15 ar
    30   14   33 1
    31   15   16 1
    32   17   18 am
    33   17   34 1
    34   18   19 2
    35   18   20 1
    36   20   35 1
    37   20   36 1
    38   21   22 1
    39   21   37 1
    40   21   38 1
    41   22   39 1
    42   22   40 1
##########                 Name:              smyd3_9
##########          Protonation:                 none
##########               SMILES:   CN(C(=O)C1=CC=C2NC(=O)CC2=C1)C1CC[NH+](C)CC1
##########            Long Name:   NO_LONG_NAME
##########          FlexRecCode: 1
##########               Number:                   23
##########   Ligand Source File: /proj/zinc22/users/x_andlu/OGG1/revisions/docking/targets/smyd3/db2gen/split_par
##########                 Rank:                    1
##########               Setnum:                    9
##########             Matchnum:                    8
##########                Cloud:                    1
##########        Electrostatic:           -19.919964
##########                 Gist:             0.000000
##########        Van der Waals:           -31.447670
##########  Ligand Polar Desolv:             9.563045
########## Ligand Apolar Desolv:            -2.192137
##########      Internal Energy:             0.000000
##########      Receptor Energy:             0.000000
########## Receptor Desolvation:             0.000000
########## Receptor Hydrophobic:             0.000000
##########         Total Energy:           -43.996727
##########        Ligand Charge:             1.000000
##########            Arbitrary:    +999.9990
##########        Ligand Energy:             0.000000

@<TRIPOS>MOLECULE
smyd3_9      none
   43    45     0     0     0
SMALL
USER_CHARGES

@<TRIPOS>ATOM
      1 C1         15.1399    3.0237   15.5185 C.3       1 <0>         0.0600
      2 N1         16.4158    3.5783   15.9775 N.am      1 <0>        -0.6100
      3 C2         16.5298    4.9001   16.2147 C.2       1 <0>         0.5800
      4 O1         17.6000    5.4556   16.0591 O.2       1 <0>        -0.5200
      5 C3         15.3554    5.6733   16.6634 C.ar      1 <0>        -0.1700
      6 C4         14.7074    5.3405   17.8558 C.ar      1 <0>        -0.0200
      7 C5         13.6126    6.0605   18.2730 C.ar      1 <0>        -0.1400
      8 C6         13.1396    7.1301   17.5101 C.ar      1 <0>         0.1800
      9 N2         12.0686    7.9915   17.7238 N.am      1 <0>        -0.6600
     10 C7         11.9410    8.9018   16.7443 C.2       1 <0>         0.5300
     11 O2         11.0980    9.7709   16.6741 O.2       1 <0>        -0.4900
     12 C8         13.0469    8.6391   15.7441 C.3       1 <0>        -0.1100
     13 C9         13.7932    7.4580   16.3215 C.ar      1 <0>        -0.1500
     14 C10        14.8825    6.7443   15.8975 C.ar      1 <0>        -0.0400
     15 C11        17.5680    2.6960   16.1786 C.3       1 <0>         0.1300
     16 C12        17.9149    1.9982   14.8602 C.3       1 <0>        -0.1600
     17 C13        19.0663    1.0180   15.0961 C.3       1 <0>        -0.0000
     18 N3         18.6672    0.0170   16.0927 N.4       1 <0>        -0.3900
     19 H1         17.8315   -0.4531   15.7784 H         1 <0>         0.4200
     20 C14        19.7471   -0.9650   16.2578 C.3       1 <0>        -0.0500
     21 C15        18.4033    0.6728   17.3792 C.3       1 <0>        -0.0000
     22 C16        17.2253    1.6383   17.2317 C.3       1 <0>        -0.1600
     23 H2         15.2399    1.9470   15.3817 H         1 <0>         0.0700
     24 H3         14.3680    3.2255   16.2612 H         1 <0>         0.0700
     25 H4         14.8625    3.4861   14.5713 H         1 <0>         0.0900
     26 H5         15.0674    4.5149   18.4516 H         1 <0>         0.1400
     27 H6         13.1164    5.7977   19.1955 H         1 <0>         0.1400
     28 H7         11.4804    7.9406   18.4934 H         1 <0>         0.4200
     29 H8         12.6287    8.3876   14.7694 H         1 <0>         0.1300
     30 H9         13.7042    9.5050   15.6650 H         1 <0>         0.1300
     31 H10        15.3760    7.0094   14.9742 H         1 <0>         0.1400
     32 H11        18.4222    3.2831   16.5161 H         1 <0>         0.1200
     33 H12        17.0436    1.4539   14.4962 H         1 <0>         0.0900
     34 H13        18.2143    2.7425   14.1224 H         1 <0>         0.1200
     35 H14        19.9375    1.5636   15.4584 H         1 <0>         0.1300
     36 H15        19.3145    0.5187   14.1595 H         1 <0>         0.1400
     37 H16        19.4517   -1.7088   16.9978 H         1 <0>         0.1200
     38 H17        19.9392   -1.4574   15.3044 H         1 <0>         0.1200
     39 H18        20.6514   -0.4576   16.5935 H         1 <0>         0.1200
     40 H19        19.2887    1.2259   17.6929 H         1 <0>         0.1300
     41 H20        18.1625   -0.0816   18.1279 H         1 <0>         0.1400
     42 H21        17.0322    2.1254   18.1875 H         1 <0>         0.1200
     43 H22        16.3389    1.0867   16.9187 H         1 <0>         0.0900
@<TRIPOS>BOND
     1    1    2 1
     2    1   23 1
     3    1   24 1
     4    1   25 1
     5    2    3 am
     6    2   15 1
     7    3    4 2
     8    3    5 1
     9    5   14 ar
    10    5    6 ar
    11    6    7 ar
    12    6   26 1
    13    7    8 ar
    14    7   27 1
    15    8   13 ar
    16    8    9 1
    17    9   10 am
    18    9   28 1
    19   10   11 2
    20   10   12 1
    21   12   13 1
    22   12   29 1
    23   12   30 1
    24   13   14 ar
    25   14   31 1
    26   15   22 1
    27   15   16 1
    28   15   32 1
    29   16   17 1
    30   16   33 1
    31   16   34 1
    32   17   18 1
    33   17   35 1
    34   17   36 1
    35   18   19 1
    36   18   20 1
    37   18   21 1
    38   20   37 1
    39   20   38 1
    40   20   39 1
    41   21   22 1
    42   21   40 1
    43   21   41 1
    44   22   42 1
    45   22   43 1
##########                 Name:             smyd3_11
##########          Protonation:                 none
##########               SMILES:   C[NH+]1CCC(C)(NC(=O)C2=CC=C3NC(=O)CC3=C2)CC1
##########            Long Name:   NO_LONG_NAME
##########          FlexRecCode: 1
##########               Number:                   28
##########   Ligand Source File: /proj/zinc22/users/x_andlu/OGG1/revisions/docking/targets/smyd3/db2gen/split_par
##########                 Rank:                    1
##########               Setnum:                    9
##########             Matchnum:                   15
##########                Cloud:                    1
##########        Electrostatic:           -23.664639
##########                 Gist:             0.000000
##########        Van der Waals:           -30.145386
##########  Ligand Polar Desolv:             8.794754
########## Ligand Apolar Desolv:            -2.082702
##########      Internal Energy:             0.000000
##########      Receptor Energy:             0.000000
########## Receptor Desolvation:             0.000000
########## Receptor Hydrophobic:             0.000000
##########         Total Energy:           -47.097973
##########        Ligand Charge:             1.000000
##########            Arbitrary:    +999.9990
##########        Ligand Energy:             0.000000

@<TRIPOS>MOLECULE
smyd3_11      none
   43    45     0     0     0
SMALL
USER_CHARGES

@<TRIPOS>ATOM
      1 C1         15.8620   -0.9432   17.2926 C.3       1 <0>        -0.0500
      2 N1         16.8014   -0.0329   16.6245 N.4       1 <0>        -0.3800
      3 H1         17.5353   -0.5699   16.1874 H         1 <0>         0.4300
      4 C2         17.3873    0.8773   17.6158 C.3       1 <0>        -0.0100
      5 C3         18.4251    1.7751   16.9389 C.3       1 <0>        -0.1500
      6 C4         17.7451    2.5898   15.8347 C.3       1 <0>         0.1700
      7 C5         18.7912    3.4324   15.1024 C.3       1 <0>        -0.1700
      8 N2         16.7344    3.4696   16.4270 N.am      1 <0>        -0.7300
      9 C6         16.0052    4.2844   15.6391 C.2       1 <0>         0.5700
     10 O1         16.1862    4.2892   14.4368 O.2       1 <0>        -0.5200
     11 C7         14.9870    5.1708   16.2357 C.ar      1 <0>        -0.1800
     12 C8         14.3683    4.8219   17.4389 C.ar      1 <0>        -0.0500
     13 C9         13.4203    5.6484   17.9951 C.ar      1 <0>        -0.1500
     14 C10        13.0679    6.8425   17.3630 C.ar      1 <0>         0.1900
     15 N3         12.1524    7.8242   17.7272 N.am      1 <0>        -0.6600
     16 C11        12.1041    8.8327   16.8411 C.2       1 <0>         0.5300
     17 O2         11.3981    9.8165   16.9074 O.2       1 <0>        -0.4800
     18 C12        13.0966    8.5107   15.7441 C.3       1 <0>        -0.1200
     19 C13        13.6911    7.1851   16.1622 C.ar      1 <0>        -0.1500
     20 C14        14.6348    6.3666   15.6008 C.ar      1 <0>         0.0000
     21 C15        17.0743    1.6327   14.8452 C.3       1 <0>        -0.1600
     22 C16        16.0861    0.7389   15.6011 C.3       1 <0>        -0.0100
     23 H2         15.0686   -0.3640   17.7652 H         1 <0>         0.1200
     24 H3         15.4282   -1.6214   16.5578 H         1 <0>         0.1200
     25 H4         16.3919   -1.5198   18.0509 H         1 <0>         0.1200
     26 H5         17.8681    0.2961   18.4026 H         1 <0>         0.1400
     27 H6         16.6013    1.4951   18.0504 H         1 <0>         0.1200
     28 H7         19.2119    1.1584   16.5041 H         1 <0>         0.1100
     29 H8         18.8577    2.4514   17.6762 H         1 <0>         0.1200
     30 H9         18.3061    4.0118   14.3169 H         1 <0>         0.0700
     31 H10        19.2719    4.1092   15.8087 H         1 <0>         0.0700
     32 H11        19.5410    2.7766   14.6598 H         1 <0>         0.0900
     33 H12        16.5900    3.4658   17.3861 H         1 <0>         0.4000
     34 H13        14.6357    3.9001   17.9340 H         1 <0>         0.1300
     35 H14        12.9463    5.3726   18.9254 H         1 <0>         0.1400
     36 H15        11.6101    7.7853   18.5305 H         1 <0>         0.4200
     37 H16        12.5882    8.4158   14.7845 H         1 <0>         0.1300
     38 H17        13.8701    9.2769   15.6915 H         1 <0>         0.1300
     39 H18        15.1069    6.6453   14.6703 H         1 <0>         0.1500
     40 H19        16.5420    2.2072   14.0871 H         1 <0>         0.1300
     41 H20        17.8329    1.0130   14.3670 H         1 <0>         0.1000
     42 H21        15.6064    0.0553   14.9005 H         1 <0>         0.1300
     43 H22        15.3280    1.3595   16.0786 H         1 <0>         0.1300
@<TRIPOS>BOND
     1    1    2 1
     2    1   23 1
     3    1   24 1
     4    1   25 1
     5    2    3 1
     6    2   22 1
     7    2    4 1
     8    4    5 1
     9    4   26 1
    10    4   27 1
    11    5    6 1
    12    5   28 1
    13    5   29 1
    14    6    7 1
    15    6    8 1
    16    6   21 1
    17    7   30 1
    18    7   31 1
    19    7   32 1
    20    8    9 am
    21    8   33 1
    22    9   10 2
    23    9   11 1
    24   11   20 ar
    25   11   12 ar
    26   12   13 ar
    27   12   34 1
    28   13   14 ar
    29   13   35 1
    30   14   19 ar
    31   14   15 1
    32   15   16 am
    33   15   36 1
    34   16   17 2
    35   16   18 1
    36   18   19 1
    37   18   37 1
    38   18   38 1
    39   19   20 ar
    40   20   39 1
    41   21   22 1
    42   21   40 1
    43   21   41 1
    44   22   42 1
    45   22   43 1
##########                 Name:             smyd3_14
##########          Protonation:                 none
##########               SMILES:   O=C1CC2=C(C=CC(C(=O)NC34CC[NH+](CC3)CC4)=C2)N1
##########            Long Name:   NO_LONG_NAME
##########          FlexRecCode: 1
##########               Number:                   35
##########   Ligand Source File: /proj/zinc22/users/x_andlu/OGG1/revisions/docking/targets/smyd3/db2gen/split_par
##########                 Rank:                    1
##########               Setnum:                    5
##########             Matchnum:                    6
##########                Cloud:                    1
##########        Electrostatic:           -31.185253
##########                 Gist:             0.000000
##########        Van der Waals:           -30.680159
##########  Ligand Polar Desolv:            11.165547
########## Ligand Apolar Desolv:            -1.843352
##########      Internal Energy:             0.000000
##########      Receptor Energy:             0.000000
########## Receptor Desolvation:             0.000000
########## Receptor Hydrophobic:             0.000000
##########         Total Energy:           -52.543217
##########        Ligand Charge:             1.000000
##########            Arbitrary:    +999.9990
##########        Ligand Energy:             0.000000

@<TRIPOS>MOLECULE
smyd3_14      none
   41    44     0     0     0
SMALL
USER_CHARGES

@<TRIPOS>ATOM
      1 O1         11.3205    9.6503   16.9397 O.2       1 <0>        -0.4800
      2 C1         12.0788    8.7059   16.8778 C.2       1 <0>         0.5300
      3 C2         13.0524    8.4064   15.7578 C.3       1 <0>        -0.1200
      4 C3         13.7315    7.1287   16.1958 C.ar      1 <0>        -0.1500
      5 C4         13.1709    6.7897   17.4239 C.ar      1 <0>         0.1900
      6 C5         13.6113    5.6371   18.0783 C.ar      1 <0>        -0.1500
      7 C6         14.5866    4.8489   17.5151 C.ar      1 <0>        -0.0400
      8 C7         15.1452    5.1945   16.2814 C.ar      1 <0>        -0.1800
      9 C8         16.1924    4.3485   15.6764 C.2       1 <0>         0.5800
     10 O2         16.3371    4.3301   14.4693 O.2       1 <0>        -0.5300
     11 N1         16.9884    3.5963   16.4620 N.am      1 <0>        -0.7200
     12 C9         18.0278    2.7566   15.8616 C.3       1 <0>         0.1800
     13 C10        18.8015    2.0060   16.9534 C.3       1 <0>        -0.1500
     14 C11        19.8861    1.1507   16.2947 C.3       1 <0>         0.0000
     15 N2         19.8418    1.3176   14.8401 N.4       1 <0>        -0.3800
     16 H1         20.5621    0.7417   14.4306 H         1 <0>         0.4300
     17 C12        20.0990    2.7121   14.4729 C.3       1 <0>         0.0000
     18 C13        19.0207    3.6188   15.0709 C.3       1 <0>        -0.1600
     19 C14        18.5508    0.8737   14.3093 C.3       1 <0>        -0.0000
     20 C15        17.4185    1.7243   14.9037 C.3       1 <0>        -0.1600
     21 C16        14.7089    6.3510   15.6271 C.ar      1 <0>         0.0000
     22 N3         12.2128    7.7292   17.7904 N.am      1 <0>        -0.6600
     23 H2         13.7805    9.2115   15.6589 H         1 <0>         0.1300
     24 H3         12.5220    8.2544   14.8178 H         1 <0>         0.1300
     25 H4         13.1837    5.3639   19.0317 H         1 <0>         0.1400
     26 H5         14.9222    3.9594   18.0274 H         1 <0>         0.1300
     27 H6         16.8730    3.6110   17.4251 H         1 <0>         0.4100
     28 H7         18.1182    1.3644   17.5100 H         1 <0>         0.1100
     29 H8         19.2637    2.7230   17.6321 H         1 <0>         0.1100
     30 H9         20.8641    1.4589   16.6645 H         1 <0>         0.1300
     31 H10        19.7198    0.1022   16.5421 H         1 <0>         0.1300
     32 H11        21.0754    3.0121   14.8531 H         1 <0>         0.1300
     33 H12        20.0904    2.8076   13.3872 H         1 <0>         0.1300
     34 H13        19.4837    4.3450   15.7390 H         1 <0>         0.1000
     35 H14        18.4973    4.1411   14.2701 H         1 <0>         0.1200
     36 H15        18.5503    0.9793   13.2244 H         1 <0>         0.1300
     37 H16        18.3933   -0.1730   14.5692 H         1 <0>         0.1300
     38 H17        16.7287    1.0812   15.4503 H         1 <0>         0.1000
     39 H18        16.8837    2.2382   14.1049 H         1 <0>         0.1200
     40 H19        15.1370    6.6291   14.6753 H         1 <0>         0.1500
     41 H20        11.6991    7.6840   18.6120 H         1 <0>         0.4200
@<TRIPOS>BOND
     1    1    2 2
     2    2   22 am
     3    2    3 1
     4    3    4 1
     5    3   23 1
     6    3   24 1
     7    4   21 ar
     8    4    5 ar
     9    5    6 ar
    10    5   22 1
    11    6    7 ar
    12    6   25 1
    13    7    8 ar
    14    7   26 1
    15    8    9 1
    16    8   21 ar
    17    9   10 2
    18    9   11 am
    19   11   12 1
    20   11   27 1
    21   12   18 1
    22   12   20 1
    23   12   13 1
    24   13   14 1
    25   13   28 1
    26   13   29 1
    27   14   15 1
    28   14   30 1
    29   14   31 1
    30   15   16 1
    31   15   17 1
    32   15   19 1
    33   17   18 1
    34   17   32 1
    35   17   33 1
    36   18   34 1
    37   18   35 1
    38   19   20 1
    39   19   36 1
    40   19   37 1
    41   20   38 1
    42   20   39 1
    43   21   40 1
    44   22   41 1
##########                 Name:             smyd3_16
##########          Protonation:                 none
##########               SMILES:   CC1C[N@@H+](C)CCC1NC(=O)C1=CC=C2NC(=O)CC2=C1
##########            Long Name:   NO_LONG_NAME
##########          FlexRecCode: 1
##########               Number:                   42
##########   Ligand Source File: /proj/zinc22/users/x_andlu/OGG1/revisions/docking/targets/smyd3/db2gen/split_par
##########                 Rank:                    1
##########               Setnum:                    1
##########             Matchnum:                    4
##########                Cloud:                    1
##########        Electrostatic:           -28.567623
##########                 Gist:             0.000000
##########        Van der Waals:           -28.039959
##########  Ligand Polar Desolv:             7.284970
########## Ligand Apolar Desolv:            -2.062833
##########      Internal Energy:             0.000000
##########      Receptor Energy:             0.000000
########## Receptor Desolvation:             0.000000
########## Receptor Hydrophobic:             0.000000
##########         Total Energy:           -51.385445
##########        Ligand Charge:             1.000000
##########            Arbitrary:    +999.9990
##########        Ligand Energy:             0.000000

@<TRIPOS>MOLECULE
smyd3_16      none
   43    45     0     0     0
SMALL
USER_CHARGES

@<TRIPOS>ATOM
      1 C1         15.3941    0.2860   15.5370 C.3       1 <0>        -0.1500
      2 C2         16.8128    0.7570   15.8630 C.3       1 <0>        -0.1200
      3 C3         17.8264   -0.1582   15.1726 C.3       1 <0>        -0.0000
      4 N1         19.1885    0.2929   15.4819 N.4       1 <0>        -0.3900
      5 H1         19.3172    0.3093   16.4826 H         1 <0>         0.4200
      6 C4         20.1565   -0.6338   14.8802 C.3       1 <0>        -0.0500
      7 C5         19.4018    1.6405   14.9406 C.3       1 <0>        -0.0000
      8 C6         18.4489    2.6249   15.6221 C.3       1 <0>        -0.1600
      9 C7         17.0035    2.1912   15.3613 C.3       1 <0>         0.1400
     10 N2         16.0876    3.0853   16.0739 N.am      1 <0>        -0.7300
     11 C8         15.7039    4.2470   15.5086 C.2       1 <0>         0.5700
     12 O1         16.1179    4.5529   14.4071 O.2       1 <0>        -0.5300
     13 C9         14.7812    5.1479   16.2266 C.ar      1 <0>        -0.1700
     14 C10        14.3023    4.8013   17.4926 C.ar      1 <0>        -0.0500
     15 C11        13.4429    5.6410   18.1615 C.ar      1 <0>        -0.1500
     16 C12        13.0415    6.8463   17.5822 C.ar      1 <0>         0.1900
     17 N3         12.1947    7.8422   18.0575 N.am      1 <0>        -0.6600
     18 C13        12.0618    8.8582   17.1887 C.2       1 <0>         0.5300
     19 O2         11.3913    9.8566   17.3454 O.2       1 <0>        -0.4800
     20 C14        12.9111    8.5260   15.9803 C.3       1 <0>        -0.1200
     21 C15        13.5219    7.1856   16.3201 C.ar      1 <0>        -0.1500
     22 C16        14.3796    6.3549   15.6443 C.ar      1 <0>         0.0000
     23 H2         15.2400    0.3167   14.4583 H         1 <0>         0.0700
     24 H3         15.2590   -0.7350   15.8943 H         1 <0>         0.0700
     25 H4         14.6726    0.9405   16.0259 H         1 <0>         0.0800
     26 H5         16.9688    0.7248   16.9414 H         1 <0>         0.1000
     27 H6         17.6693   -0.1255   14.0944 H         1 <0>         0.1300
     28 H7         17.6932   -1.1802   15.5275 H         1 <0>         0.1400
     29 H8         21.1688   -0.3039   15.1138 H         1 <0>         0.1300
     30 H9         19.9989   -1.6349   15.2815 H         1 <0>         0.1200
     31 H10        20.0201   -0.6502   13.7989 H         1 <0>         0.1200
     32 H11        19.2112    1.6349   13.8674 H         1 <0>         0.1300
     33 H12        20.4318    1.9462   15.1246 H         1 <0>         0.1400
     34 H13        18.6076    3.6245   15.2175 H         1 <0>         0.1200
     35 H14        18.6389    2.6315   16.6955 H         1 <0>         0.0900
     36 H15        16.7972    2.2350   14.2920 H         1 <0>         0.1100
     37 H16        15.7573    2.8413   16.9527 H         1 <0>         0.4000
     38 H17        14.6084    3.8709   17.9476 H         1 <0>         0.1300
     39 H18        13.0770    5.3669   19.1401 H         1 <0>         0.1400
     40 H19        11.7508    7.8072   18.9192 H         1 <0>         0.4200
     41 H20        12.2911    8.4481   15.0872 H         1 <0>         0.1300
     42 H21        13.6892    9.2766   15.8422 H         1 <0>         0.1300
     43 H22        14.7439    6.6321   14.6662 H         1 <0>         0.1500
@<TRIPOS>BOND
     1    1    2 1
     2    1   23 1
     3    1   24 1
     4    1   25 1
     5    2    9 1
     6    2    3 1
     7    2   26 1
     8    3    4 1
     9    3   27 1
    10    3   28 1
    11    4    5 1
    12    4    6 1
    13    4    7 1
    14    6   29 1
    15    6   30 1
    16    6   31 1
    17    7    8 1
    18    7   32 1
    19    7   33 1
    20    8    9 1
    21    8   34 1
    22    8   35 1
    23    9   10 1
    24    9   36 1
    25   10   11 am
    26   10   37 1
    27   11   12 2
    28   11   13 1
    29   13   22 ar
    30   13   14 ar
    31   14   15 ar
    32   14   38 1
    33   15   16 ar
    34   15   39 1
    35   16   21 ar
    36   16   17 1
    37   17   18 am
    38   17   40 1
    39   18   19 2
    40   18   20 1
    41   20   21 1
    42   20   41 1
    43   20   42 1
    44   21   22 ar
    45   22   43 1
##########                 Name:             smyd3_19
##########          Protonation:                 none
##########               SMILES:   O=C1CC2=C(C=CC(C(=O)NC3CC[N@H+]4CCC3C4)=C2)N1
##########            Long Name:   NO_LONG_NAME
##########          FlexRecCode: 1
##########               Number:                   49
##########   Ligand Source File: /proj/zinc22/users/x_andlu/OGG1/revisions/docking/targets/smyd3/db2gen/split_par
##########                 Rank:                    1
##########               Setnum:                    9
##########             Matchnum:                    8
##########                Cloud:                    1
##########        Electrostatic:           -24.219816
##########                 Gist:             0.000000
##########        Van der Waals:           -29.728945
##########  Ligand Polar Desolv:             9.470787
########## Ligand Apolar Desolv:            -1.884309
##########      Internal Energy:             0.000000
##########      Receptor Energy:             0.000000
########## Receptor Desolvation:             0.000000
########## Receptor Hydrophobic:             0.000000
##########         Total Energy:           -46.362282
##########        Ligand Charge:             1.000000
##########            Arbitrary:    +999.9990
##########        Ligand Energy:             0.000000

@<TRIPOS>MOLECULE
smyd3_19      none
   41    44     0     0     0
SMALL
USER_CHARGES

@<TRIPOS>ATOM
      1 O1         11.3463    9.6512   17.0194 O.2       1 <0>        -0.4800
      2 C1         12.0874    8.6952   16.9306 C.2       1 <0>         0.5300
      3 C2         13.0616    8.4142   15.8064 C.3       1 <0>        -0.1200
      4 C3         13.7138    7.1100   16.2054 C.ar      1 <0>        -0.1500
      5 C4         13.1397    6.7418   17.4189 C.ar      1 <0>         0.1900
      6 C5         13.5546    5.5600   18.0370 C.ar      1 <0>        -0.1500
      7 C6         14.5139    4.7693   17.4500 C.ar      1 <0>        -0.0500
      8 C7         15.0902    5.1475   16.2342 C.ar      1 <0>        -0.1800
      9 C8         16.1239    4.3015   15.6063 C.2       1 <0>         0.5700
     10 O2         16.2713    4.3166   14.3996 O.2       1 <0>        -0.5200
     11 N1         16.9044    3.5122   16.3708 N.am      1 <0>        -0.7400
     12 C9         17.9305    2.6726   15.7477 C.3       1 <0>         0.1400
     13 C10        17.2704    1.6860   14.7776 C.3       1 <0>        -0.1600
     14 C11        16.3932    0.6987   15.5487 C.3       1 <0>        -0.0000
     15 N2         17.1974    0.0243   16.5841 N.4       1 <0>        -0.3900
     16 H1         16.7040   -0.7455   17.0107 H         1 <0>         0.4300
     17 C12        18.4686   -0.4197   15.9681 C.3       1 <0>        -0.0100
     18 C13        19.4619    0.7502   16.1001 C.3       1 <0>        -0.1400
     19 C14        18.6677    1.8624   16.8313 C.3       1 <0>        -0.1100
     20 C15        17.5812    1.0518   17.5882 C.3       1 <0>        -0.0100
     21 C16        14.6760    6.3305   15.6138 C.ar      1 <0>         0.0000
     22 N3         12.1977    7.6869   17.8112 N.am      1 <0>        -0.6600
     23 H2         13.8053    9.2081   15.7377 H         1 <0>         0.1300
     24 H3         12.5317    8.3028   14.8604 H         1 <0>         0.1300
     25 H4         13.1163    5.2635   18.9785 H         1 <0>         0.1400
     26 H5         14.8264    3.8548   17.9323 H         1 <0>         0.1300
     27 H6         16.7868    3.5003   17.3335 H         1 <0>         0.4000
     28 H7         18.6419    3.2989   15.2093 H         1 <0>         0.1200
     29 H8         18.0439    1.1385   14.2389 H         1 <0>         0.1000
     30 H9         16.6558    2.2358   14.0646 H         1 <0>         0.1200
     31 H10        15.9917   -0.0445   14.8599 H         1 <0>         0.1300
     32 H11        15.5710    1.2363   16.0210 H         1 <0>         0.1300
     33 H12        18.3101   -0.6571   14.9161 H         1 <0>         0.1300
     34 H13        18.8515   -1.2946   16.4936 H         1 <0>         0.1300
     35 H14        20.3263    0.4494   16.6918 H         1 <0>         0.1100
     36 H15        19.7780    1.0927   15.1147 H         1 <0>         0.1100
     37 H16        19.2871    2.4713   17.4899 H         1 <0>         0.1400
     38 H17        17.9971    0.5847   18.4809 H         1 <0>         0.1400
     39 H18        16.7319    1.6855   17.8437 H         1 <0>         0.1300
     40 H19        15.1122    6.6299   14.6723 H         1 <0>         0.1500
     41 H20        11.6788    7.6247   18.6284 H         1 <0>         0.4200
@<TRIPOS>BOND
     1    1    2 2
     2    2   22 am
     3    2    3 1
     4    3    4 1
     5    3   23 1
     6    3   24 1
     7    4   21 ar
     8    4    5 ar
     9    5    6 ar
    10    5   22 1
    11    6    7 ar
    12    6   25 1
    13    7    8 ar
    14    7   26 1
    15    8    9 1
    16    8   21 ar
    17    9   10 2
    18    9   11 am
    19   11   12 1
    20   11   27 1
    21   12   19 1
    22   12   13 1
    23   12   28 1
    24   13   14 1
    25   13   29 1
    26   13   30 1
    27   14   15 1
    28   14   31 1
    29   14   32 1
    30   15   16 1
    31   15   20 1
    32   15   17 1
    33   17   18 1
    34   17   33 1
    35   17   34 1
    36   18   19 1
    37   18   35 1
    38   18   36 1
    39   19   20 1
    40   19   37 1
    41   20   38 1
    42   20   39 1
    43   21   40 1
    44   22   41 1
##########                 Name:             smyd3_21
##########          Protonation:                 none
##########               SMILES:   CN1CCC(NC(=O)C2=CC=C3NC(=O)CC3=C2)CC1=O
##########            Long Name:   NO_LONG_NAME
##########          FlexRecCode: 1
##########               Number:                   56
##########   Ligand Source File: /proj/zinc22/users/x_andlu/OGG1/revisions/docking/targets/smyd3/db2gen/split_par
##########                 Rank:                    1
##########               Setnum:                    4
##########             Matchnum:                   15
##########                Cloud:                    1
##########        Electrostatic:           -16.888504
##########                 Gist:             0.000000
##########        Van der Waals:           -31.018200
##########  Ligand Polar Desolv:             7.780917
########## Ligand Apolar Desolv:            -1.116706
##########      Internal Energy:             0.000000
##########      Receptor Energy:             0.000000
########## Receptor Desolvation:             0.000000
########## Receptor Hydrophobic:             0.000000
##########         Total Energy:           -41.242493
##########        Ligand Charge:             0.000000
##########            Arbitrary:    +999.9990
##########        Ligand Energy:             0.000000

@<TRIPOS>MOLECULE
smyd3_21      none
   38    40     0     0     0
SMALL
USER_CHARGES

@<TRIPOS>ATOM
      1 C1         20.8761    0.0953   15.6831 C.3       1 <0>         0.0700
      2 N1         19.7640    1.0101   15.9526 N.am      1 <0>        -0.6100
      3 C2         19.7578    2.2976   15.2693 C.3       1 <0>         0.1200
      4 C3         18.8335    3.2781   15.9923 C.3       1 <0>        -0.1500
      5 C4         17.4744    2.6022   16.2100 C.3       1 <0>         0.1400
      6 N2         16.5190    3.5762   16.7438 N.am      1 <0>        -0.7200
      7 C5         15.7563    4.3025   15.9028 C.2       1 <0>         0.5700
      8 O1         15.8611    4.1495   14.7012 O.2       1 <0>        -0.5300
      9 C6         14.7937    5.2837   16.4406 C.ar      1 <0>        -0.1600
     10 C7         14.2459    5.1069   17.7139 C.ar      1 <0>        -0.0500
     11 C8         13.3528    6.0238   18.2166 C.ar      1 <0>        -0.1500
     12 C9         12.9774    7.1329   17.4558 C.ar      1 <0>         0.1700
     13 N3         12.1021    8.1748   17.7437 N.am      1 <0>        -0.6600
     14 C10        12.0110    9.0594   16.7368 C.2       1 <0>         0.5300
     15 O2         11.3259   10.0600   16.7170 O.2       1 <0>        -0.4900
     16 C11        12.9250    8.5736   15.6321 C.3       1 <0>        -0.1200
     17 C12        13.5229    7.3003   16.1856 C.ar      1 <0>        -0.1500
     18 C13        14.4187    6.3942   15.6769 C.ar      1 <0>        -0.0000
     19 C14        17.6575    1.4585   17.2106 C.3       1 <0>        -0.1500
     20 C15        18.8272    0.6079   16.8061 C.2       1 <0>         0.5200
     21 O3         18.9209   -0.5035   17.2824 O.2       1 <0>        -0.5500
     22 H1         21.5607    0.5555   14.9706 H         1 <0>         0.0600
     23 H2         21.4061   -0.1158   16.6119 H         1 <0>         0.0800
     24 H3         20.4889   -0.8345   15.2664 H         1 <0>         0.0700
     25 H4         19.4082    2.1609   14.2460 H         1 <0>         0.0700
     26 H5         20.7700    2.7018   15.2532 H         1 <0>         0.0900
     27 H6         19.2670    3.5464   16.9559 H         1 <0>         0.0800
     28 H7         18.7034    4.1738   15.3851 H         1 <0>         0.1000
     29 H8         17.1054    2.2070   15.2636 H         1 <0>         0.1000
     30 H9         16.4355    3.6983   17.7024 H         1 <0>         0.4000
     31 H10        14.5278    4.2494   18.3066 H         1 <0>         0.1400
     32 H11        12.9361    5.8830   19.2030 H         1 <0>         0.1400
     33 H12        11.6121    8.2533   18.5772 H         1 <0>         0.4200
     34 H13        13.7061    9.3071   15.4321 H         1 <0>         0.1300
     35 H14        12.3539    8.3658   14.7272 H         1 <0>         0.1300
     36 H15        14.8328    6.5376   14.6899 H         1 <0>         0.1500
     37 H16        17.8363    1.8711   18.2035 H         1 <0>         0.1000
     38 H17        16.7553    0.8472   17.2310 H         1 <0>         0.1100
@<TRIPOS>BOND
     1    1    2 1
     2    1   22 1
     3    1   23 1
     4    1   24 1
     5    2   20 am
     6    2    3 1
     7    3    4 1
     8    3   25 1
     9    3   26 1
    10    4    5 1
    11    4   27 1
    12    4   28 1
    13    5    6 1
    14    5   19 1
    15    5   29 1
    16    6    7 am
    17    6   30 1
    18    7    8 2
    19    7    9 1
    20    9   18 ar
    21    9   10 ar
    22   10   11 ar
    23   10   31 1
    24   11   12 ar
    25   11   32 1
    26   12   17 ar
    27   12   13 1
    28   13   14 am
    29   13   33 1
    30   14   15 2
    31   14   16 1
    32   16   17 1
    33   16   34 1
    34   16   35 1
    35   17   18 ar
    36   18   36 1
    37   19   20 1
    38   19   37 1
    39   19   38 1
    40   20   21 2
##########                 Name:             smyd3_22
##########          Protonation:                 none
##########               SMILES:   O=C1CC(NC(=O)C2=CC3=C(C=C2)NC(=O)C3)CC(=O)N1
##########            Long Name:   NO_LONG_NAME
##########          FlexRecCode: 1
##########               Number:                   58
##########   Ligand Source File: /proj/zinc22/users/x_andlu/OGG1/revisions/docking/targets/smyd3/db2gen/split_par
##########                 Rank:                    1
##########               Setnum:                   10
##########             Matchnum:                   10
##########                Cloud:                    1
##########        Electrostatic:           -20.274281
##########                 Gist:             0.000000
##########        Van der Waals:           -28.059006
##########  Ligand Polar Desolv:             7.878362
########## Ligand Apolar Desolv:            -0.349096
##########      Internal Energy:             0.000000
##########      Receptor Energy:             0.000000
########## Receptor Desolvation:             0.000000
########## Receptor Hydrophobic:             0.000000
##########         Total Energy:           -40.804020
##########        Ligand Charge:             0.000000
##########            Arbitrary:    +999.9990
##########        Ligand Energy:             0.000000

@<TRIPOS>MOLECULE
smyd3_22      none
   34    36     0     0     0
SMALL
USER_CHARGES

@<TRIPOS>ATOM
      1 O1         18.3244   -0.0779   14.2007 O.2       1 <0>        -0.4900
      2 C1         18.5169    1.0785   14.5094 C.2       1 <0>         0.5300
      3 C2         17.4072    1.8646   15.1561 C.3       1 <0>        -0.1500
      4 C3         18.0148    2.9334   16.0708 C.3       1 <0>         0.1500
      5 N1         16.9489    3.7758   16.6188 N.am      1 <0>        -0.7200
      6 C4         16.1452    4.4703   15.7891 C.2       1 <0>         0.5700
      7 O2         16.3048    4.3976   14.5860 O.2       1 <0>        -0.5300
      8 C5         15.0711    5.3190   16.3412 C.ar      1 <0>        -0.1600
      9 C6         14.6158    6.4321   15.6273 C.ar      1 <0>         0.0000
     10 C7         13.6214    7.2188   16.1523 C.ar      1 <0>        -0.1500
     11 C8         13.0501    6.9225   17.3867 C.ar      1 <0>         0.1800
     12 C9         13.5016    5.8067   18.0953 C.ar      1 <0>        -0.1500
     13 C10        14.4977    5.0126   17.5784 C.ar      1 <0>        -0.0500
     14 N2         12.0714    7.8596   17.7005 N.am      1 <0>        -0.6600
     15 C11        11.9329    8.7941   16.7454 C.2       1 <0>         0.5300
     16 O3         11.1573    9.7264   16.7569 O.2       1 <0>        -0.4900
     17 C12        12.9265    8.4646   15.6517 C.3       1 <0>        -0.1200
     18 C13        18.9795    3.7943   15.2481 C.3       1 <0>        -0.1600
     19 C14        20.0014    2.9023   14.5933 C.2       1 <0>         0.5300
     20 O4         21.1068    3.3407   14.3578 O.2       1 <0>        -0.4900
     21 N3         19.7146    1.6327   14.2689 N.am      1 <0>        -0.6800
     22 H1         16.7811    1.1943   15.7449 H         1 <0>         0.1300
     23 H2         16.8041    2.3447   14.3854 H         1 <0>         0.1200
     24 H3         18.5568    2.4529   16.8853 H         1 <0>         0.1100
     25 H4         16.8216    3.8339   17.5787 H         1 <0>         0.4100
     26 H5         15.0490    6.6748   14.6682 H         1 <0>         0.1500
     27 H6         13.0663    5.5670   19.0541 H         1 <0>         0.1400
     28 H7         14.8414    4.1516   18.1325 H         1 <0>         0.1400
     29 H8         11.5474    7.8402   18.5166 H         1 <0>         0.4200
     30 H9         13.6420    9.2776   15.5277 H         1 <0>         0.1300
     31 H10        12.4115    8.2635   14.7123 H         1 <0>         0.1300
     32 H11        18.4233    4.3321   14.4803 H         1 <0>         0.1200
     33 H12        19.4804    4.5072   15.9030 H         1 <0>         0.1200
     34 H13        20.4003    1.0941   13.8439 H         1 <0>         0.4200
@<TRIPOS>BOND
     1    1    2 2
     2    2   21 am
     3    2    3 1
     4    3    4 1
     5    3   22 1
     6    3   23 1
     7    4    5 1
     8    4   18 1
     9    4   24 1
    10    5    6 am
    11    5   25 1
    12    6    7 2
    13    6    8 1
    14    8   13 ar
    15    8    9 ar
    16    9   10 ar
    17    9   26 1
    18   10   17 1
    19   10   11 ar
    20   11   12 ar
    21   11   14 1
    22   12   13 ar
    23   12   27 1
    24   13   28 1
    25   14   15 am
    26   14   29 1
    27   15   16 2
    28   15   17 1
    29   17   30 1
    30   17   31 1
    31   18   19 1
    32   18   32 1
    33   18   33 1
    34   19   20 2
    35   19   21 am
    36   21   34 1
##########                 Name:             smyd3_24
##########          Protonation:                 none
##########               SMILES:   CC1CC(NC(=O)C2=CC=C3NC(=O)CC3=C2)CC[N@H+]1C
##########            Long Name:   NO_LONG_NAME
##########          FlexRecCode: 1
##########               Number:                   62
##########   Ligand Source File: /proj/zinc22/users/x_andlu/OGG1/revisions/docking/targets/smyd3/db2gen/split_par
##########                 Rank:                    1
##########               Setnum:                    5
##########             Matchnum:                    2
##########                Cloud:                    1
##########        Electrostatic:           -28.369452
##########                 Gist:             0.000000
##########        Van der Waals:           -28.108683
##########  Ligand Polar Desolv:             8.651644
########## Ligand Apolar Desolv:            -1.710299
##########      Internal Energy:             0.000000
##########      Receptor Energy:             0.000000
########## Receptor Desolvation:             0.000000
########## Receptor Hydrophobic:             0.000000
##########         Total Energy:           -49.536793
##########        Ligand Charge:             1.000000
##########            Arbitrary:    +999.9990
##########        Ligand Energy:             0.000000

@<TRIPOS>MOLECULE
smyd3_24      none
   43    45     0     0     0
SMALL
USER_CHARGES

@<TRIPOS>ATOM
      1 C1         21.1135    2.7679   15.0756 C.3       1 <0>        -0.1800
      2 C2         19.7278    2.1255   15.1634 C.3       1 <0>         0.0300
      3 C3         18.7324    3.1373   15.7353 C.3       1 <0>        -0.1500
      4 C4         17.3472    2.4902   15.8211 C.3       1 <0>         0.1400
      5 N1         16.4057    3.4277   16.4383 N.am      1 <0>        -0.7300
      6 C5         15.7053    4.2842   15.6687 C.2       1 <0>         0.5700
      7 O1         15.8549    4.2788   14.4620 O.2       1 <0>        -0.5300
      8 C6         14.7568    5.2285   16.2905 C.ar      1 <0>        -0.1700
      9 C7         14.1502    4.9161   17.5099 C.ar      1 <0>        -0.0500
     10 C8         13.2667    5.7964   18.0893 C.ar      1 <0>        -0.1500
     11 C9         12.9682    7.0091   17.4650 C.ar      1 <0>         0.1900
     12 N2         12.1213    8.0426   17.8515 N.am      1 <0>        -0.6600
     13 C10        12.1094    9.0525   16.9657 C.2       1 <0>         0.5300
     14 O2         11.4674   10.0778   17.0513 O.2       1 <0>        -0.4800
     15 C11        13.0528    8.6733   15.8440 C.3       1 <0>        -0.1200
     16 C12        13.5761    7.3144   16.2501 C.ar      1 <0>        -0.1500
     17 C13        14.4589    6.4432   15.6636 C.ar      1 <0>         0.0000
     18 C14        17.4394    1.2213   16.6735 C.3       1 <0>        -0.1600
     19 C15        18.4824    0.2803   16.0669 C.3       1 <0>        -0.0000
     20 N3         19.7896    0.9474   16.0368 N.4       1 <0>        -0.3800
     21 H1         20.0408    1.2351   16.9707 H         1 <0>         0.4200
     22 C16        20.8012    0.0130   15.5252 C.3       1 <0>        -0.0500
     23 H2         21.0681    3.6427   14.4270 H         1 <0>         0.0800
     24 H3         21.4377    3.0701   16.0713 H         1 <0>         0.0900
     25 H4         21.8223    2.0482   14.6657 H         1 <0>         0.1100
     26 H5         19.4050    1.8222   14.1673 H         1 <0>         0.1400
     27 H6         18.6867    4.0106   15.0844 H         1 <0>         0.1200
     28 H7         19.0540    3.4422   16.7312 H         1 <0>         0.1000
     29 H8         17.0023    2.2335   14.8194 H         1 <0>         0.1100
     30 H9         16.2865    3.4320   17.4009 H         1 <0>         0.4100
     31 H10        14.3756    3.9798   17.9989 H         1 <0>         0.1300
     32 H11        12.8013    5.5482   19.0317 H         1 <0>         0.1400
     33 H12        11.5988    8.0352   18.6687 H         1 <0>         0.4200
     34 H13        12.5152    8.6087   14.8979 H         1 <0>         0.1300
     35 H14        13.8695    9.3916   15.7723 H         1 <0>         0.1300
     36 H15        14.9225    6.6944   14.7212 H         1 <0>         0.1500
     37 H16        17.7344    1.4856   17.6890 H         1 <0>         0.0900
     38 H17        16.4692    0.7249   16.6933 H         1 <0>         0.1200
     39 H18        18.1864    0.0165   15.0515 H         1 <0>         0.1300
     40 H19        18.5503   -0.6239   16.6718 H         1 <0>         0.1400
     41 H20        20.8479   -0.8623   16.1732 H         1 <0>         0.1300
     42 H21        20.5323   -0.2964   14.5154 H         1 <0>         0.1300
     43 H22        21.7740    0.5045   15.5077 H         1 <0>         0.1200
@<TRIPOS>BOND
     1    1    2 1
     2    1   23 1
     3    1   24 1
     4    1   25 1
     5    2   20 1
     6    2    3 1
     7    2   26 1
     8    3    4 1
     9    3   27 1
    10    3   28 1
    11    4    5 1
    12    4   18 1
    13    4   29 1
    14    5    6 am
    15    5   30 1
    16    6    7 2
    17    6    8 1
    18    8   17 ar
    19    8    9 ar
    20    9   10 ar
    21    9   31 1
    22   10   11 ar
    23   10   32 1
    24   11   16 ar
    25   11   12 1
    26   12   13 am
    27   12   33 1
    28   13   14 2
    29   13   15 1
    30   15   16 1
    31   15   34 1
    32   15   35 1
    33   16   17 ar
    34   17   36 1
    35   18   19 1
    36   18   37 1
    37   18   38 1
    38   19   20 1
    39   19   39 1
    40   19   40 1
    41   20   21 1
    42   20   22 1
    43   22   41 1
    44   22   42 1
    45   22   43 1
##########                 Name:             smyd3_25
##########          Protonation:                 none
##########               SMILES:   CC1CC(NC(=O)C2=CC=C3NC(=O)CC3=C2)CC(C)[NH2+]1
##########            Long Name:   NO_LONG_NAME
##########          FlexRecCode: 1
##########               Number:                   66
##########   Ligand Source File: /proj/zinc22/users/x_andlu/OGG1/revisions/docking/targets/smyd3/db2gen/split_par
##########                 Rank:                    1
##########               Setnum:                    5
##########             Matchnum:                    9
##########                Cloud:                    1
##########        Electrostatic:           -30.434072
##########                 Gist:             0.000000
##########        Van der Waals:           -27.063229
##########  Ligand Polar Desolv:             8.284613
########## Ligand Apolar Desolv:            -1.398873
##########      Internal Energy:             0.000000
##########      Receptor Energy:             0.000000
########## Receptor Desolvation:             0.000000
########## Receptor Hydrophobic:             0.000000
##########         Total Energy:           -50.611557
##########        Ligand Charge:             1.000000
##########            Arbitrary:    +999.9990
##########        Ligand Energy:             0.000000

@<TRIPOS>MOLECULE
smyd3_25      none
   43    45     0     0     0
SMALL
USER_CHARGES

@<TRIPOS>ATOM
      1 C1         21.5756    3.2046   14.7392 C.3       1 <0>        -0.1800
      2 C2         20.2171    2.5020   14.7022 C.3       1 <0>         0.0300
      3 C3         19.1730    3.3742   15.4026 C.3       1 <0>        -0.1500
      4 C4         17.8152    2.6672   15.3628 C.3       1 <0>         0.1400
      5 N1         16.8275    3.4614   16.0977 N.am      1 <0>        -0.7300
      6 C5         16.1015    4.3969   15.4544 C.2       1 <0>         0.5700
      7 O1         16.2663    4.5820   14.2640 O.2       1 <0>        -0.5300
      8 C6         15.1064    5.1969   16.1948 C.ar      1 <0>        -0.1800
      9 C7         14.4982    4.6779   17.3408 C.ar      1 <0>        -0.0500
     10 C8         13.5704    5.4231   18.0300 C.ar      1 <0>        -0.1500
     11 C9         13.2287    6.7041   17.5918 C.ar      1 <0>         0.1900
     12 N2         12.3334    7.6314   18.1143 N.am      1 <0>        -0.6600
     13 C10        12.2897    8.7633   17.3922 C.2       1 <0>         0.5300
     14 O2         11.5997    9.7349   17.6173 O.2       1 <0>        -0.4800
     15 C11        13.2629    8.5983   16.2444 C.3       1 <0>        -0.1200
     16 C12        13.8419    7.2166   16.4477 C.ar      1 <0>        -0.1500
     17 C13        14.7649    6.4799   15.7541 C.ar      1 <0>         0.0000
     18 C14        17.9499    1.2876   16.0137 C.3       1 <0>        -0.1600
     19 C15        19.0392    0.4926   15.2907 C.3       1 <0>         0.0300
     20 C16        19.1772   -0.8870   15.9374 C.3       1 <0>        -0.1800
     21 N3         20.3175    1.2076   15.3870 N.4       1 <0>        -0.5000
     22 H1         21.0439    0.6556   14.9560 H         1 <0>         0.4300
     23 H2         20.5447    1.3590   16.3584 H         1 <0>         0.4200
     24 H3         21.5015    4.1659   14.2307 H         1 <0>         0.0800
     25 H4         21.8741    3.3639   15.7754 H         1 <0>         0.0900
     26 H5         22.3191    2.5848   14.2381 H         1 <0>         0.1100
     27 H6         19.9198    2.3420   13.6657 H         1 <0>         0.1400
     28 H7         19.0987    4.3341   14.8915 H         1 <0>         0.1200
     29 H8         19.4694    3.5351   16.4392 H         1 <0>         0.1000
     30 H9         17.4939    2.5533   14.3275 H         1 <0>         0.1100
     31 H10        16.6963    3.3137   17.0474 H         1 <0>         0.4100
     32 H11        14.7574    3.6881   17.6862 H         1 <0>         0.1300
     33 H12        13.1040    5.0157   18.9147 H         1 <0>         0.1400
     34 H13        11.8008    7.4781   18.9104 H         1 <0>         0.4200
     35 H14        12.7410    8.6572   15.2892 H         1 <0>         0.1300
     36 H15        14.0476    9.3530   16.2971 H         1 <0>         0.1300
     37 H16        15.2290    6.8901   14.8693 H         1 <0>         0.1500
     38 H17        18.2209    1.4051   17.0630 H         1 <0>         0.0900
     39 H18        17.0014    0.7559   15.9395 H         1 <0>         0.1200
     40 H19        18.7672    0.3754   14.2417 H         1 <0>         0.1400
     41 H20        19.9531   -1.4538   15.4226 H         1 <0>         0.0800
     42 H21        19.4480   -0.7710   16.9869 H         1 <0>         0.1100
     43 H22        18.2290   -1.4196   15.8635 H         1 <0>         0.0800
@<TRIPOS>BOND
     1    1    2 1
     2    1   24 1
     3    1   25 1
     4    1   26 1
     5    2   21 1
     6    2    3 1
     7    2   27 1
     8    3    4 1
     9    3   28 1
    10    3   29 1
    11    4    5 1
    12    4   18 1
    13    4   30 1
    14    5    6 am
    15    5   31 1
    16    6    7 2
    17    6    8 1
    18    8   17 ar
    19    8    9 ar
    20    9   10 ar
    21    9   32 1
    22   10   11 ar
    23   10   33 1
    24   11   16 ar
    25   11   12 1
    26   12   13 am
    27   12   34 1
    28   13   14 2
    29   13   15 1
    30   15   16 1
    31   15   35 1
    32   15   36 1
    33   16   17 ar
    34   17   37 1
    35   18   19 1
    36   18   38 1
    37   18   39 1
    38   19   20 1
    39   19   21 1
    40   19   40 1
    41   20   41 1
    42   20   42 1
    43   20   43 1
    44   21   22 1
    45   21   23 1
##########                 Name:             smyd3_27
##########          Protonation:                 none
##########               SMILES:   CON1CCC(NC(=O)C2=CC=C3NC(=O)CC3=C2)CC1
##########            Long Name:   NO_LONG_NAME
##########          FlexRecCode: 1
##########               Number:                   70
##########   Ligand Source File: /proj/zinc22/users/x_andlu/OGG1/revisions/docking/targets/smyd3/db2gen/split_par
##########                 Rank:                    1
##########               Setnum:                   14
##########             Matchnum:                    7
##########                Cloud:                    1
##########        Electrostatic:           -18.426876
##########                 Gist:             0.000000
##########        Van der Waals:           -29.537704
##########  Ligand Polar Desolv:             5.901237
########## Ligand Apolar Desolv:            -0.953580
##########      Internal Energy:             0.000000
##########      Receptor Energy:             0.000000
########## Receptor Desolvation:             0.000000
########## Receptor Hydrophobic:             0.000000
##########         Total Energy:           -43.016922
##########        Ligand Charge:             0.000000
##########            Arbitrary:    +999.9990
##########        Ligand Energy:             0.000000

@<TRIPOS>MOLECULE
smyd3_27      none
   40    42     0     0     0
SMALL
USER_CHARGES

@<TRIPOS>ATOM
      1 C1         20.3673   -0.9527   14.7628 C.3       1 <0>        -0.0000
      2 O1         19.3593   -1.3425   15.6978 O.3       1 <0>        -0.2400
      3 N1         18.4802   -0.2502   16.1150 N.3       1 <0>        -0.3300
      4 C2         19.2523    0.9639   16.4088 C.3       1 <0>         0.0300
      5 C3         18.3215    2.0365   16.9791 C.3       1 <0>        -0.1200
      6 C4         17.2203    2.3436   15.9606 C.3       1 <0>         0.1400
      7 N2         16.2926    3.3275   16.5242 N.am      1 <0>        -0.7200
      8 C5         15.6439    4.1849   15.7115 C.2       1 <0>         0.5700
      9 O2         15.8286    4.1419   14.5106 O.2       1 <0>        -0.5300
     10 C6         14.7092    5.1760   16.2795 C.ar      1 <0>        -0.1600
     11 C7         14.0570    4.9166   17.4876 C.ar      1 <0>        -0.0500
     12 C8         13.1862    5.8402   18.0165 C.ar      1 <0>        -0.1500
     13 C9         12.9468    7.0448   17.3521 C.ar      1 <0>         0.1700
     14 N3         12.1233    8.1150   17.6854 N.am      1 <0>        -0.6600
     15 C10        12.1710    9.1004   16.7736 C.2       1 <0>         0.5300
     16 O3         11.5575   10.1458   16.8104 O.2       1 <0>        -0.4900
     17 C11        13.1343    8.6609   15.6915 C.3       1 <0>        -0.1200
     18 C12        13.6036    7.2979   16.1470 C.ar      1 <0>        -0.1500
     19 C13        14.4703    6.3821   15.6122 C.ar      1 <0>        -0.0000
     20 C14        16.4621    1.0540   15.6339 C.3       1 <0>        -0.1200
     21 C15        17.4471    0.0093   15.1042 C.3       1 <0>         0.0100
     22 H1         20.9768   -1.8184   14.5038 H         1 <0>         0.1000
     23 H2         19.8952   -0.5584   13.8630 H         1 <0>         0.0500
     24 H3         20.9985   -0.1841   15.2087 H         1 <0>         0.0400
     25 H4         19.7124    1.3324   15.4920 H         1 <0>         0.0500
     26 H5         20.0293    0.7326   17.1375 H         1 <0>         0.1000
     27 H6         18.8921    2.9427   17.1824 H         1 <0>         0.0900
     28 H7         17.8715    1.6747   17.9036 H         1 <0>         0.0800
     29 H8         17.6671    2.7439   15.0505 H         1 <0>         0.0900
     30 H9         16.1452    3.3618   17.4823 H         1 <0>         0.4000
     31 H10        14.2370    3.9874   18.0076 H         1 <0>         0.1400
     32 H11        12.6852    5.6330   18.9505 H         1 <0>         0.1400
     33 H12        11.5766    8.1464   18.4859 H         1 <0>         0.4200
     34 H13        12.6233    8.5880   14.7315 H         1 <0>         0.1300
     35 H14        13.9748    9.3517   15.6244 H         1 <0>         0.1300
     36 H15        14.9691    6.5922   14.6776 H         1 <0>         0.1400
     37 H16        15.9820    0.6756   16.5364 H         1 <0>         0.0800
     38 H17        15.7051    1.2587   14.8770 H         1 <0>         0.0800
     39 H18        17.9157    0.3823   14.1934 H         1 <0>         0.0500
     40 H19        16.9129   -0.9153   14.8853 H         1 <0>         0.1000
@<TRIPOS>BOND
     1    1    2 1
     2    1   22 1
     3    1   23 1
     4    1   24 1
     5    2    3 1
     6    3   21 1
     7    3    4 1
     8    4    5 1
     9    4   25 1
    10    4   26 1
    11    5    6 1
    12    5   27 1
    13    5   28 1
    14    6    7 1
    15    6   20 1
    16    6   29 1
    17    7    8 am
    18    7   30 1
    19    8    9 2
    20    8   10 1
    21   10   19 ar
    22   10   11 ar
    23   11   12 ar
    24   11   31 1
    25   12   13 ar
    26   12   32 1
    27   13   18 ar
    28   13   14 1
    29   14   15 am
    30   14   33 1
    31   15   16 2
    32   15   17 1
    33   17   18 1
    34   17   34 1
    35   17   35 1
    36   18   19 ar
    37   19   36 1
    38   20   21 1
    39   20   37 1
    40   20   38 1
    41   21   39 1
    42   21   40 1
##########                 Name:             smyd3_29
##########          Protonation:                 none
##########               SMILES:   CC[NH+]1CCC(NC(=O)C2=CC=C3NC(=O)CC3=C2)CC1
##########            Long Name:   NO_LONG_NAME
##########          FlexRecCode: 1
##########               Number:                   74
##########   Ligand Source File: /proj/zinc22/users/x_andlu/OGG1/revisions/docking/targets/smyd3/db2gen/split_par
##########                 Rank:                    1
##########               Setnum:                    8
##########             Matchnum:                    4
##########                Cloud:                    1
##########        Electrostatic:           -26.939798
##########                 Gist:             0.000000
##########        Van der Waals:           -30.024860
##########  Ligand Polar Desolv:             8.679304
########## Ligand Apolar Desolv:            -1.993365
##########      Internal Energy:             0.000000
##########      Receptor Energy:             0.000000
########## Receptor Desolvation:             0.000000
########## Receptor Hydrophobic:             0.000000
##########         Total Energy:           -50.278721
##########        Ligand Charge:             1.000000
##########            Arbitrary:    +999.9990
##########        Ligand Energy:             0.000000

@<TRIPOS>MOLECULE
smyd3_29      none
   43    45     0     0     0
SMALL
USER_CHARGES

@<TRIPOS>ATOM
      1 C1         19.8814   -2.0138   15.1915 C.3       1 <0>        -0.1900
      2 C2         20.5271   -0.6509   15.4491 C.3       1 <0>        -0.0100
      3 N1         19.5137    0.2825   15.9590 N.4       1 <0>        -0.3900
      4 H1         19.1303   -0.0769   16.8204 H         1 <0>         0.4200
      5 C3         20.1352    1.5884   16.2090 C.3       1 <0>        -0.0000
      6 C4         19.1026    2.5416   16.8146 C.3       1 <0>        -0.1600
      7 C5         17.9354    2.7085   15.8376 C.3       1 <0>         0.1400
      8 N2         16.9078    3.5594   16.4427 N.am      1 <0>        -0.7300
      9 C6         16.1244    4.3293   15.6616 C.2       1 <0>         0.5700
     10 O1         16.2706    4.3176   14.4547 O.2       1 <0>        -0.5300
     11 C7         15.0891    5.1865   16.2714 C.ar      1 <0>        -0.1700
     12 C8         14.5195    4.8372   17.4986 C.ar      1 <0>        -0.0500
     13 C9         13.5544    5.6357   18.0661 C.ar      1 <0>        -0.1500
     14 C10        13.1356    6.8016   17.4220 C.ar      1 <0>         0.1900
     15 N3         12.1908    7.7523   17.7936 N.am      1 <0>        -0.6600
     16 C11        12.0765    8.7401   16.8904 C.2       1 <0>         0.5300
     17 O2         11.3322    9.6952   16.9579 O.2       1 <0>        -0.4800
     18 C12        13.0506    8.4369   15.7718 C.3       1 <0>        -0.1200
     19 C13        13.7106    7.1452   16.1977 C.ar      1 <0>        -0.1500
     20 C14        14.6708    6.3544   15.6247 C.ar      1 <0>         0.0000
     21 C15        17.3420    1.3316   15.5262 C.3       1 <0>        -0.1600
     22 C16        18.4399    0.4233   14.9683 C.3       1 <0>        -0.0100
     23 H2         20.6332   -2.7064   14.8131 H         1 <0>         0.0800
     24 H3         19.4663   -2.4010   16.1221 H         1 <0>         0.0800
     25 H4         19.0845   -1.9052   14.4559 H         1 <0>         0.1100
     26 H5         20.9420   -0.2637   14.5184 H         1 <0>         0.1300
     27 H6         21.3240   -0.7596   16.1847 H         1 <0>         0.1300
     28 H7         20.5029    2.0011   15.2695 H         1 <0>         0.1300
     29 H8         20.9675    1.4670   16.9023 H         1 <0>         0.1400
     30 H9         19.5656    3.5111   16.9978 H         1 <0>         0.1200
     31 H10        18.7343    2.1305   17.7546 H         1 <0>         0.0900
     32 H11        18.2938    3.1689   14.9168 H         1 <0>         0.1100
     33 H12        16.7912    3.5688   17.4056 H         1 <0>         0.4100
     34 H13        14.8381    3.9370   18.0030 H         1 <0>         0.1300
     35 H14        13.1178    5.3592   19.0145 H         1 <0>         0.1400
     36 H15        11.6729    7.7072   18.6124 H         1 <0>         0.4200
     37 H16        12.5202    8.3023   14.8291 H         1 <0>         0.1300
     38 H17        13.7901    9.2327   15.6828 H         1 <0>         0.1300
     39 H18        15.1046    6.6330   14.6757 H         1 <0>         0.1500
     40 H19        16.9374    0.8948   16.4393 H         1 <0>         0.0900
     41 H20        16.5464    1.4363   14.7885 H         1 <0>         0.1200
     42 H21        18.8436    0.8609   14.0553 H         1 <0>         0.1300
     43 H22        18.0203   -0.5577   14.7458 H         1 <0>         0.1400
@<TRIPOS>BOND
     1    1    2 1
     2    1   23 1
     3    1   24 1
     4    1   25 1
     5    2    3 1
     6    2   26 1
     7    2   27 1
     8    3    4 1
     9    3   22 1
    10    3    5 1
    11    5    6 1
    12    5   28 1
    13    5   29 1
    14    6    7 1
    15    6   30 1
    16    6   31 1
    17    7    8 1
    18    7   21 1
    19    7   32 1
    20    8    9 am
    21    8   33 1
    22    9   10 2
    23    9   11 1
    24   11   20 ar
    25   11   12 ar
    26   12   13 ar
    27   12   34 1
    28   13   14 ar
    29   13   35 1
    30   14   19 ar
    31   14   15 1
    32   15   16 am
    33   15   36 1
    34   16   17 2
    35   16   18 1
    36   18   19 1
    37   18   37 1
    38   18   38 1
    39   19   20 ar
    40   20   39 1
    41   21   22 1
    42   21   40 1
    43   21   41 1
    44   22   42 1
    45   22   43 1
##########                 Name:             smyd3_33
##########          Protonation:                 none
##########               SMILES:   CN(C(=O)C1=CC2=C(C=C1Cl)NC(=O)C2)C1CC[NH+](C)CC1
##########            Long Name:   NO_LONG_NAME
##########          FlexRecCode: 1
##########               Number:                   83
##########   Ligand Source File: /proj/zinc22/users/x_andlu/OGG1/revisions/docking/targets/smyd3/db2gen/split_par
##########                 Rank:                    1
##########               Setnum:                   15
##########             Matchnum:                    1
##########                Cloud:                    1
##########        Electrostatic:           -19.539078
##########                 Gist:             0.000000
##########        Van der Waals:           -34.213116
##########  Ligand Polar Desolv:            11.613422
########## Ligand Apolar Desolv:            -2.604050
##########      Internal Energy:             0.000000
##########      Receptor Energy:             0.000000
########## Receptor Desolvation:             0.000000
########## Receptor Hydrophobic:             0.000000
##########         Total Energy:           -44.742821
##########        Ligand Charge:             1.000000
##########            Arbitrary:    +999.9990
##########        Ligand Energy:             0.000000

@<TRIPOS>MOLECULE
smyd3_33      none
   43    45     0     0     0
SMALL
USER_CHARGES

@<TRIPOS>ATOM
      1 C1         14.3358    2.8132   15.0468 C.3       1 <0>         0.0600
      2 N1         15.6676    3.0850   15.5935 N.am      1 <0>        -0.6100
      3 C2         16.0063    4.3398   15.9502 C.2       1 <0>         0.5700
      4 O1         17.1655    4.7002   15.8785 O.2       1 <0>        -0.5000
      5 C3         14.9709    5.2758   16.4277 C.ar      1 <0>        -0.1600
      6 C4         14.7357    6.4741   15.7457 C.ar      1 <0>        -0.0200
      7 C5         13.7712    7.3387   16.1983 C.ar      1 <0>        -0.1500
      8 C6         13.0175    7.0429   17.3312 C.ar      1 <0>         0.1900
      9 C7         13.2521    5.8466   18.0115 C.ar      1 <0>        -0.1400
     10 C8         14.2171    4.9719   17.5665 C.ar      1 <0>         0.0500
     11 Cl1        14.5003    3.4875   18.4210 Cl        1 <0>        -0.0300
     12 N2         12.1157    8.0700   17.5899 N.am      1 <0>        -0.6600
     13 C9         12.1975    9.0617   16.6874 C.2       1 <0>         0.5300
     14 O2         11.5307   10.0745   16.6681 O.2       1 <0>        -0.4800
     15 C10        13.2826    8.6809   15.7029 C.3       1 <0>        -0.1100
     16 C11        16.6311    1.9929   15.7524 C.3       1 <0>         0.1300
     17 C12        17.5630    2.2994   16.9283 C.3       1 <0>        -0.1600
     18 C13        18.6159    1.1944   17.0390 C.3       1 <0>        -0.0000
     19 N3         19.3966    1.1314   15.7976 N.4       1 <0>        -0.3900
     20 H1         19.8134    2.0327   15.6187 H         1 <0>         0.4200
     21 C14        20.4557    0.1230   15.9376 C.3       1 <0>        -0.0500
     22 C15        18.5215    0.7674   14.6768 C.3       1 <0>        -0.0000
     23 C16        17.4650    1.8558   14.4752 C.3       1 <0>        -0.1600
     24 H2         14.2468    1.7510   14.8184 H         1 <0>         0.0700
     25 H3         13.5784    3.0921   15.7794 H         1 <0>         0.0700
     26 H4         14.1916    3.3940   14.1358 H         1 <0>         0.0900
     27 H5         15.3114    6.7181   14.8651 H         1 <0>         0.1500
     28 H6         12.6737    5.6065   18.8914 H         1 <0>         0.1500
     29 H7         11.4960    8.0689   18.3361 H         1 <0>         0.4200
     30 H8         12.8718    8.5906   14.6974 H         1 <0>         0.1300
     31 H9         14.0893    9.4138   15.7208 H         1 <0>         0.1300
     32 H10        16.0981    1.0612   15.9414 H         1 <0>         0.1200
     33 H11        18.0564    3.2569   16.7618 H         1 <0>         0.0900
     34 H12        16.9832    2.3434   17.8503 H         1 <0>         0.1200
     35 H13        18.1214    0.2375   17.2058 H         1 <0>         0.1300
     36 H14        19.2809    1.4099   17.8753 H         1 <0>         0.1400
     37 H15        21.0360    0.0753   15.0162 H         1 <0>         0.1200
     38 H16        21.1099    0.3958   16.7656 H         1 <0>         0.1200
     39 H17        20.0066   -0.8504   16.1349 H         1 <0>         0.1200
     40 H18        18.0292   -0.1805   14.8940 H         1 <0>         0.1300
     41 H19        19.1172    0.6673   13.7696 H         1 <0>         0.1400
     42 H20        16.8152    1.5827   13.6439 H         1 <0>         0.1200
     43 H21        17.9559    2.8044   14.2574 H         1 <0>         0.0900
@<TRIPOS>BOND
     1    1    2 1
     2    1   24 1
     3    1   25 1
     4    1   26 1
     5    2    3 am
     6    2   16 1
     7    3    4 2
     8    3    5 1
     9    5   10 ar
    10    5    6 ar
    11    6    7 ar
    12    6   27 1
    13    7   15 1
    14    7    8 ar
    15    8    9 ar
    16    8   12 1
    17    9   10 ar
    18    9   28 1
    19   10   11 1
    20   12   13 am
    21   12   29 1
    22   13   14 2
    23   13   15 1
    24   15   30 1
    25   15   31 1
    26   16   23 1
    27   16   17 1
    28   16   32 1
    29   17   18 1
    30   17   33 1
    31   17   34 1
    32   18   19 1
    33   18   35 1
    34   18   36 1
    35   19   20 1
    36   19   21 1
    37   19   22 1
    38   21   37 1
    39   21   38 1
    40   21   39 1
    41   22   23 1
    42   22   40 1
    43   22   41 1
    44   23   42 1
    45   23   43 1
##########                 Name:             smyd3_35
##########          Protonation:                 none
##########               SMILES:   O=C1CC2=CC(C(=O)NC34CC[NH+](CC3)CC4)=C(Cl)C=C2N1
##########            Long Name:   NO_LONG_NAME
##########          FlexRecCode: 1
##########               Number:                   90
##########   Ligand Source File: /proj/zinc22/users/x_andlu/OGG1/revisions/docking/targets/smyd3/db2gen/split_par
##########                 Rank:                    1
##########               Setnum:                    3
##########             Matchnum:                    3
##########                Cloud:                    1
##########        Electrostatic:           -32.019920
##########                 Gist:             0.000000
##########        Van der Waals:           -31.346172
##########  Ligand Polar Desolv:            12.079167
########## Ligand Apolar Desolv:            -2.037567
##########      Internal Energy:             0.000000
##########      Receptor Energy:             0.000000
########## Receptor Desolvation:             0.000000
########## Receptor Hydrophobic:             0.000000
##########         Total Energy:           -53.324493
##########        Ligand Charge:             1.000000
##########            Arbitrary:    +999.9990
##########        Ligand Energy:             0.000000

@<TRIPOS>MOLECULE
smyd3_35      none
   41    44     0     0     0
SMALL
USER_CHARGES

@<TRIPOS>ATOM
      1 O1         11.7237    9.9768   17.3807 O.2       1 <0>        -0.4800
      2 C1         12.3975    8.9823   17.2140 C.2       1 <0>         0.5300
      3 C2         13.5103    8.8097   16.2022 C.3       1 <0>        -0.1100
      4 C3         13.9965    7.3966   16.4310 C.ar      1 <0>        -0.1500
      5 C4         14.9781    6.6428   15.8394 C.ar      1 <0>        -0.0200
      6 C5         15.2046    5.3317   16.2728 C.ar      1 <0>        -0.1700
      7 C6         16.2575    4.5126   15.6431 C.2       1 <0>         0.5700
      8 O2         16.2084    4.2695   14.4527 O.2       1 <0>        -0.5100
      9 N1         17.2742    4.0339   16.3872 N.am      1 <0>        -0.7200
     10 C7         18.3199    3.2204   15.7619 C.3       1 <0>         0.1800
     11 C8         17.7109    1.9549   15.1440 C.3       1 <0>        -0.1500
     12 C9         18.8621    1.1465   14.4907 C.3       1 <0>        -0.0000
     13 N2         20.1408    1.8328   14.6896 N.4       1 <0>        -0.3800
     14 H1         20.8686    1.2829   14.2585 H         1 <0>         0.4300
     15 C10        20.4407    1.9607   16.1176 C.3       1 <0>         0.0000
     16 C11        19.3598    2.7963   16.8072 C.3       1 <0>        -0.1500
     17 C12        20.1258    3.1485   14.0460 C.3       1 <0>        -0.0000
     18 C13        19.0344    4.0233   14.6668 C.3       1 <0>        -0.1600
     19 C14        14.4253    4.8041   17.3072 C.ar      1 <0>         0.0600
     20 Cl1        14.6970    3.1786   17.8527 Cl        1 <0>        -0.0100
     21 C15        13.4391    5.5680   17.8902 C.ar      1 <0>        -0.1500
     22 C16        13.2165    6.8774   17.4615 C.ar      1 <0>         0.2000
     23 N3         12.2967    7.8275   17.8929 N.am      1 <0>        -0.6600
     24 H2         14.3114    9.5246   16.3894 H         1 <0>         0.1300
     25 H3         13.1257    8.9220   15.1885 H         1 <0>         0.1300
     26 H4         15.5746    7.0603   15.0417 H         1 <0>         0.1400
     27 H5         17.3134    4.2279   17.3368 H         1 <0>         0.4100
     28 H6         17.2321    1.3620   15.9233 H         1 <0>         0.1000
     29 H7         16.9743    2.2343   14.3906 H         1 <0>         0.1200
     30 H8         18.6730    1.0363   13.4229 H         1 <0>         0.1300
     31 H9         18.9054    0.1601   14.9524 H         1 <0>         0.1300
     32 H10        21.4081    2.4472   16.2418 H         1 <0>         0.1300
     33 H11        20.4740    0.9690   16.5688 H         1 <0>         0.1300
     34 H12        19.8119    3.6821   17.2531 H         1 <0>         0.1100
     35 H13        18.8769    2.2009   17.5822 H         1 <0>         0.1100
     36 H14        21.0950    3.6286   14.1818 H         1 <0>         0.1300
     37 H15        19.9301    3.0277   12.9805 H         1 <0>         0.1300
     38 H16        18.3136    4.3272   13.9077 H         1 <0>         0.1200
     39 H17        19.4998    4.9059   15.1056 H         1 <0>         0.1000
     40 H18        12.8378    5.1533   18.6857 H         1 <0>         0.1500
     41 H19        11.6547    7.6735   18.6036 H         1 <0>         0.4200
@<TRIPOS>BOND
     1    1    2 2
     2    2   23 am
     3    2    3 1
     4    3    4 1
     5    3   24 1
     6    3   25 1
     7    4   22 ar
     8    4    5 ar
     9    5    6 ar
    10    5   26 1
    11    6    7 1
    12    6   19 ar
    13    7    8 2
    14    7    9 am
    15    9   10 1
    16    9   27 1
    17   10   16 1
    18   10   18 1
    19   10   11 1
    20   11   12 1
    21   11   28 1
    22   11   29 1
    23   12   13 1
    24   12   30 1
    25   12   31 1
    26   13   14 1
    27   13   15 1
    28   13   17 1
    29   15   16 1
    30   15   32 1
    31   15   33 1
    32   16   34 1
    33   16   35 1
    34   17   18 1
    35   17   36 1
    36   17   37 1
    37   18   38 1
    38   18   39 1
    39   19   20 1
    40   19   21 ar
    41   21   22 ar
    42   21   40 1
    43   22   23 1
    44   23   41 1
##########                 Name:             smyd3_36
##########          Protonation:                 none
##########               SMILES:   CC1C[N@@H+](C)CCC1NC(=O)C1=CC2=C(C=C1Cl)NC(=O)C2
##########            Long Name:   NO_LONG_NAME
##########          FlexRecCode: 1
##########               Number:                   92
##########   Ligand Source File: /proj/zinc22/users/x_andlu/OGG1/revisions/docking/targets/smyd3/db2gen/split_par
##########                 Rank:                    1
##########               Setnum:                    9
##########             Matchnum:                    2
##########                Cloud:                    1
##########        Electrostatic:           -25.427778
##########                 Gist:             0.000000
##########        Van der Waals:           -31.449930
##########  Ligand Polar Desolv:             9.495662
########## Ligand Apolar Desolv:            -2.211979
##########      Internal Energy:             0.000000
##########      Receptor Energy:             0.000000
########## Receptor Desolvation:             0.000000
########## Receptor Hydrophobic:             0.000000
##########         Total Energy:           -49.594025
##########        Ligand Charge:             1.000000
##########            Arbitrary:    +999.9990
##########        Ligand Energy:             0.000000

@<TRIPOS>MOLECULE
smyd3_36      none
   43    45     0     0     0
SMALL
USER_CHARGES

@<TRIPOS>ATOM
      1 C1         16.0940    1.3401   15.1614 C.3       1 <0>        -0.1500
      2 C2         17.4189    1.5046   15.9087 C.3       1 <0>        -0.1200
      3 C3         18.4562    0.5409   15.3283 C.3       1 <0>        -0.0000
      4 N1         19.7291    0.6985   16.0420 N.4       1 <0>        -0.3900
      5 H1         19.5820    0.5434   17.0282 H         1 <0>         0.4200
      6 C4         20.6973   -0.2818   15.5327 C.3       1 <0>        -0.0500
      7 C5         20.2521    2.0541   15.8342 C.3       1 <0>        -0.0000
      8 C6         19.2841    3.0761   16.4341 C.3       1 <0>        -0.1600
      9 C7         17.9208    2.9427   15.7492 C.3       1 <0>         0.1400
     10 N2         16.9679    3.8658   16.3708 N.am      1 <0>        -0.7300
     11 C8         15.9579    4.3824   15.6434 C.2       1 <0>         0.5700
     12 O1         15.8373    4.0824   14.4712 O.2       1 <0>        -0.5000
     13 C9         14.9984    5.3120   16.2693 C.ar      1 <0>        -0.1700
     14 C10        14.8512    6.6118   15.7740 C.ar      1 <0>        -0.0200
     15 C11        13.9558    7.4688   16.3627 C.ar      1 <0>        -0.1500
     16 C12        13.1863    7.0655   17.4507 C.ar      1 <0>         0.2000
     17 C13        13.3332    5.7682   17.9450 C.ar      1 <0>        -0.1400
     18 C14        14.2285    4.8999   17.3623 C.ar      1 <0>         0.0600
     19 Cl1        14.4031    3.2892   17.9860 Cl        1 <0>        -0.0100
     20 N3         12.3607    8.1049   17.8668 N.am      1 <0>        -0.6600
     21 C15        12.5159    9.2144   17.1200 C.2       1 <0>         0.5300
     22 O2         11.9269   10.2657   17.2561 O.2       1 <0>        -0.4800
     23 C16        13.5674    8.9016   16.0767 C.3       1 <0>        -0.1100
     24 H2         15.7374    0.3164   15.2752 H         1 <0>         0.0700
     25 H3         15.3569    2.0296   15.5726 H         1 <0>         0.0700
     26 H4         16.2442    1.5570   14.1038 H         1 <0>         0.0800
     27 H5         17.2706    1.2860   16.9663 H         1 <0>         0.1000
     28 H6         18.6035    0.7602   14.2708 H         1 <0>         0.1300
     29 H7         18.1020   -0.4838   15.4399 H         1 <0>         0.1400
     30 H8         21.6435   -0.1666   16.0615 H         1 <0>         0.1300
     31 H9         20.3125   -1.2891   15.6919 H         1 <0>         0.1200
     32 H10        20.8545   -0.1172   14.4667 H         1 <0>         0.1200
     33 H11        20.3612    2.2411   14.7659 H         1 <0>         0.1300
     34 H12        21.2237    2.1461   16.3198 H         1 <0>         0.1300
     35 H13        19.6734    4.0819   16.2771 H         1 <0>         0.1200
     36 H14        19.1744    2.8900   17.5025 H         1 <0>         0.0900
     37 H15        18.0201    3.1800   14.6901 H         1 <0>         0.1100
     38 H16        17.0641    4.1051   17.3058 H         1 <0>         0.4000
     39 H17        15.4409    6.9401   14.9309 H         1 <0>         0.1400
     40 H18        12.7418    5.4442   18.7885 H         1 <0>         0.1500
     41 H19        11.7418    8.0378   18.6107 H         1 <0>         0.4200
     42 H20        14.4278    9.5610   16.1916 H         1 <0>         0.1300
     43 H21        13.1496    8.9915   15.0739 H         1 <0>         0.1300
@<TRIPOS>BOND
     1    1    2 1
     2    1   24 1
     3    1   25 1
     4    1   26 1
     5    2    9 1
     6    2    3 1
     7    2   27 1
     8    3    4 1
     9    3   28 1
    10    3   29 1
    11    4    5 1
    12    4    6 1
    13    4    7 1
    14    6   30 1
    15    6   31 1
    16    6   32 1
    17    7    8 1
    18    7   33 1
    19    7   34 1
    20    8    9 1
    21    8   35 1
    22    8   36 1
    23    9   10 1
    24    9   37 1
    25   10   11 am
    26   10   38 1
    27   11   12 2
    28   11   13 1
    29   13   18 ar
    30   13   14 ar
    31   14   15 ar
    32   14   39 1
    33   15   23 1
    34   15   16 ar
    35   16   17 ar
    36   16   20 1
    37   17   18 ar
    38   17   40 1
    39   18   19 1
    40   20   21 am
    41   20   41 1
    42   21   22 2
    43   21   23 1
    44   23   42 1
    45   23   43 1
##########                 Name:             smyd3_37
##########          Protonation:                 none
##########               SMILES:   CN1CCC(NC(=O)C2=CC3=C(C=C2Cl)NC(=O)C3)CC1=O
##########            Long Name:   NO_LONG_NAME
##########          FlexRecCode: 1
##########               Number:                   95
##########   Ligand Source File: /proj/zinc22/users/x_andlu/OGG1/revisions/docking/targets/smyd3/db2gen/split_par
##########                 Rank:                    1
##########               Setnum:                    2
##########             Matchnum:                    6
##########                Cloud:                    1
##########        Electrostatic:           -18.196342
##########                 Gist:             0.000000
##########        Van der Waals:           -30.268448
##########  Ligand Polar Desolv:             8.537699
########## Ligand Apolar Desolv:            -1.378411
##########      Internal Energy:             0.000000
##########      Receptor Energy:             0.000000
########## Receptor Desolvation:             0.000000
########## Receptor Hydrophobic:             0.000000
##########         Total Energy:           -41.305504
##########        Ligand Charge:             0.000000
##########            Arbitrary:    +999.9990
##########        Ligand Energy:             0.000000

@<TRIPOS>MOLECULE
smyd3_37      none
   38    40     0     0     0
SMALL
USER_CHARGES

@<TRIPOS>ATOM
      1 C1         21.4673    0.3752   15.3608 C.3       1 <0>         0.0800
      2 N1         20.3731    1.3092   15.6376 N.am      1 <0>        -0.6100
      3 C2         19.0571    1.0003   15.0923 C.3       1 <0>         0.1200
      4 C3         17.9753    1.7776   15.8435 C.3       1 <0>        -0.1500
      5 C4         18.3742    3.2577   15.8858 C.3       1 <0>         0.1500
      6 N2         17.2756    4.0486   16.4460 N.am      1 <0>        -0.7200
      7 C5         16.3369    4.5699   15.6314 C.2       1 <0>         0.5600
      8 O1         16.4019    4.3838   14.4315 O.2       1 <0>        -0.5100
      9 C6         15.2306    5.3663   16.1955 C.ar      1 <0>        -0.1600
     10 C7         15.0474    6.6960   15.8019 C.ar      1 <0>        -0.0200
     11 C8         14.0156    7.4284   16.3324 C.ar      1 <0>        -0.1500
     12 C9         13.1421    6.8688   17.2611 C.ar      1 <0>         0.1900
     13 C10        13.3251    5.5416   17.6539 C.ar      1 <0>        -0.1400
     14 C11        14.3534    4.7958   17.1239 C.ar      1 <0>         0.0500
     15 Cl1        14.5665    3.1442   17.6147 Cl        1 <0>        -0.0100
     16 N3         12.1875    7.8042   17.6471 N.am      1 <0>        -0.6600
     17 C12        12.3531    8.9874   17.0331 C.2       1 <0>         0.5300
     18 O2         11.6680    9.9772   17.1801 O.2       1 <0>        -0.4900
     19 C13        13.5553    8.8532   16.1226 C.3       1 <0>        -0.1100
     20 C14        19.6148    3.3993   16.7710 C.3       1 <0>        -0.1500
     21 C15        20.6484    2.3872   16.3678 C.2       1 <0>         0.5200
     22 O3         21.7931    2.5605   16.7292 O.2       1 <0>        -0.5500
     23 H1         21.0946   -0.4524   14.7572 H         1 <0>         0.0600
     24 H2         22.2586    0.8930   14.8186 H         1 <0>         0.0800
     25 H3         21.8627   -0.0100   16.3007 H         1 <0>         0.0700
     26 H4         18.8676   -0.0685   15.1919 H         1 <0>         0.0900
     27 H5         19.0307    1.2741   14.0376 H         1 <0>         0.0700
     28 H6         17.0220    1.6704   15.3260 H         1 <0>         0.1000
     29 H7         17.8878    1.3932   16.8597 H         1 <0>         0.0800
     30 H8         18.6007    3.6057   14.8780 H         1 <0>         0.1000
     31 H9         17.2239    4.1972   17.4031 H         1 <0>         0.4000
     32 H10        15.7161    7.1448   15.0822 H         1 <0>         0.1400
     33 H11        12.6541    5.0969   18.3739 H         1 <0>         0.1500
     34 H12        11.4818    7.6223   18.2872 H         1 <0>         0.4200
     35 H13        14.3366    9.5544   16.4156 H         1 <0>         0.1300
     36 H14        13.2673    9.0127   15.0834 H         1 <0>         0.1300
     37 H15        20.0270    4.4022   16.6589 H         1 <0>         0.1100
     38 H16        19.3369    3.2378   17.8125 H         1 <0>         0.1000
@<TRIPOS>BOND
     1    1    2 1
     2    1   23 1
     3    1   24 1
     4    1   25 1
     5    2   21 am
     6    2    3 1
     7    3    4 1
     8    3   26 1
     9    3   27 1
    10    4    5 1
    11    4   28 1
    12    4   29 1
    13    5    6 1
    14    5   20 1
    15    5   30 1
    16    6    7 am
    17    6   31 1
    18    7    8 2
    19    7    9 1
    20    9   14 ar
    21    9   10 ar
    22   10   11 ar
    23   10   32 1
    24   11   19 1
    25   11   12 ar
    26   12   13 ar
    27   12   16 1
    28   13   14 ar
    29   13   33 1
    30   14   15 1
    31   16   17 am
    32   16   34 1
    33   17   18 2
    34   17   19 1
    35   19   35 1
    36   19   36 1
    37   20   21 1
    38   20   37 1
    39   20   38 1
    40   21   22 2
##########                 Name:             smyd3_38
##########          Protonation:                 none
##########               SMILES:   O=C1CC(NC(=O)C2=C(Cl)C=C3NC(=O)CC3=C2)CC(=O)N1
##########            Long Name:   NO_LONG_NAME
##########          FlexRecCode: 1
##########               Number:                   97
##########   Ligand Source File: /proj/zinc22/users/x_andlu/OGG1/revisions/docking/targets/smyd3/db2gen/split_par
##########                 Rank:                    1
##########               Setnum:                   11
##########             Matchnum:                    3
##########                Cloud:                    1
##########        Electrostatic:           -21.618044
##########                 Gist:             0.000000
##########        Van der Waals:           -29.620003
##########  Ligand Polar Desolv:             8.534176
########## Ligand Apolar Desolv:            -0.510301
##########      Internal Energy:             0.000000
##########      Receptor Energy:             0.000000
########## Receptor Desolvation:             0.000000
########## Receptor Hydrophobic:             0.000000
##########         Total Energy:           -43.214169
##########        Ligand Charge:             0.000000
##########            Arbitrary:    +999.9990
##########        Ligand Energy:             0.000000

@<TRIPOS>MOLECULE
smyd3_38      none
   34    36     0     0     0
SMALL
USER_CHARGES

@<TRIPOS>ATOM
      1 O1         18.5464    0.2919   14.2808 O.2       1 <0>        -0.4900
      2 C1         18.6448    1.4945   14.3980 C.2       1 <0>         0.5300
      3 C2         17.5731    2.2548   15.1336 C.3       1 <0>        -0.1500
      4 C3         18.1913    3.5016   15.7753 C.3       1 <0>         0.1500
      5 N1         17.1386    4.3070   16.3994 N.am      1 <0>        -0.7200
      6 C4         16.1261    4.7886   15.6518 C.2       1 <0>         0.5600
      7 O2         16.0861    4.5547   14.4592 O.2       1 <0>        -0.5000
      8 C5         15.0660    5.5998   16.2803 C.ar      1 <0>        -0.1600
      9 C6         14.2808    5.0613   17.3048 C.ar      1 <0>         0.0500
     10 Cl1        14.5537    3.4324   17.8395 Cl        1 <0>        -0.0100
     11 C7         13.2922    5.8195   17.8909 C.ar      1 <0>        -0.1400
     12 C8         13.0658    7.1302   17.4680 C.ar      1 <0>         0.1900
     13 N2         12.1409    8.0744   17.9013 N.am      1 <0>        -0.6600
     14 C9         12.2435    9.2352   17.2332 C.2       1 <0>         0.5300
     15 O3         11.5661   10.2267   17.4036 O.2       1 <0>        -0.4900
     16 C10        13.3634    9.0738   16.2274 C.3       1 <0>        -0.1100
     17 C11        13.8515    7.6599   16.4473 C.ar      1 <0>        -0.1500
     18 C12        14.8391    6.9137   15.8563 C.ar      1 <0>        -0.0200
     19 C13        18.8882    4.3219   14.6844 C.3       1 <0>        -0.1600
     20 C14        19.8856    3.4477   13.9706 C.2       1 <0>         0.5300
     21 O4         20.8722    3.9529   13.4798 O.2       1 <0>        -0.4900
     22 N3         19.7064    2.1221   13.8702 N.am      1 <0>        -0.6800
     23 H1         17.1439    1.6207   15.9094 H         1 <0>         0.1300
     24 H2         16.7930    2.5541   14.4335 H         1 <0>         0.1200
     25 H3         18.9191    3.2025   16.5295 H         1 <0>         0.1100
     26 H4         17.1706    4.4937   17.3508 H         1 <0>         0.4000
     27 H5         12.6923    5.3997   18.6845 H         1 <0>         0.1500
     28 H6         11.4946    7.9130   18.6064 H         1 <0>         0.4200
     29 H7         14.1617    9.7889   16.4261 H         1 <0>         0.1300
     30 H8         12.9856    9.1939   15.2120 H         1 <0>         0.1300
     31 H9         15.4396    7.3391   15.0658 H         1 <0>         0.1400
     32 H10        18.1474    4.6830   13.9709 H         1 <0>         0.1200
     33 H11        19.4016    5.1696   15.1382 H         1 <0>         0.1200
     34 H12        20.3708    1.5966   13.3977 H         1 <0>         0.4200
@<TRIPOS>BOND
     1    1    2 2
     2    2   22 am
     3    2    3 1
     4    3    4 1
     5    3   23 1
     6    3   24 1
     7    4    5 1
     8    4   19 1
     9    4   25 1
    10    5    6 am
    11    5   26 1
    12    6    7 2
    13    6    8 1
    14    8   18 ar
    15    8    9 ar
    16    9   10 1
    17    9   11 ar
    18   11   12 ar
    19   11   27 1
    20   12   17 ar
    21   12   13 1
    22   13   14 am
    23   13   28 1
    24   14   15 2
    25   14   16 1
    26   16   17 1
    27   16   29 1
    28   16   30 1
    29   17   18 ar
    30   18   31 1
    31   19   20 1
    32   19   32 1
    33   19   33 1
    34   20   21 2
    35   20   22 am
    36   22   34 1
##########                 Name:             smyd3_39
##########          Protonation:                 none
##########               SMILES:   CC1CC(NC(=O)C2=CC3=C(C=C2Cl)NC(=O)C3)CC[N@@H+]1C
##########            Long Name:   NO_LONG_NAME
##########          FlexRecCode: 1
##########               Number:                  102
##########   Ligand Source File: /proj/zinc22/users/x_andlu/OGG1/revisions/docking/targets/smyd3/db2gen/split_par
##########                 Rank:                    1
##########               Setnum:                    5
##########             Matchnum:                    2
##########                Cloud:                    1
##########        Electrostatic:           -22.624001
##########                 Gist:             0.000000
##########        Van der Waals:           -32.270210
##########  Ligand Polar Desolv:            11.079710
########## Ligand Apolar Desolv:            -1.956041
##########      Internal Energy:             0.000000
##########      Receptor Energy:             0.000000
########## Receptor Desolvation:             0.000000
########## Receptor Hydrophobic:             0.000000
##########         Total Energy:           -45.770538
##########        Ligand Charge:             1.000000
##########            Arbitrary:    +999.9990
##########        Ligand Energy:             0.000000

@<TRIPOS>MOLECULE
smyd3_39      none
   43    45     0     0     0
SMALL
USER_CHARGES

@<TRIPOS>ATOM
      1 C1         18.7415   -0.0363   15.3341 C.3       1 <0>        -0.1900
      2 C2         19.3717    0.7982   16.4509 C.3       1 <0>         0.0300
      3 C3         18.3259    1.7584   17.0216 C.3       1 <0>        -0.1500
      4 C4         17.8292    2.6852   15.9083 C.3       1 <0>         0.1400
      5 N1         16.8821    3.6549   16.4642 N.am      1 <0>        -0.7300
      6 C5         15.8923    4.1479   15.6938 C.2       1 <0>         0.5700
      7 O1         15.7853    3.7879   14.5373 O.2       1 <0>        -0.5000
      8 C6         14.9386    5.1243   16.2537 C.ar      1 <0>        -0.1700
      9 C7         14.8249    6.4003   15.6919 C.ar      1 <0>        -0.0200
     10 C8         13.9311    7.2994   16.2165 C.ar      1 <0>        -0.1500
     11 C9         13.1381    6.9665   17.3115 C.ar      1 <0>         0.2000
     12 C10        13.2554    5.6948   17.8755 C.ar      1 <0>        -0.1400
     13 C11        14.1449    4.7829   17.3542 C.ar      1 <0>         0.0600
     14 Cl1        14.2828    3.2049   18.0645 Cl        1 <0>        -0.0100
     15 N2         12.3237    8.0394   17.6587 N.am      1 <0>        -0.6600
     16 C12        12.5104    9.1029   16.8597 C.2       1 <0>         0.5300
     17 O2         11.9371   10.1690   16.9339 O.2       1 <0>        -0.4800
     18 C13        13.5712    8.7211   15.8492 C.3       1 <0>        -0.1100
     19 C14        19.0251    3.4249   15.3017 C.3       1 <0>        -0.1600
     20 C15        20.0454    2.4036   14.7941 C.3       1 <0>        -0.0100
     21 N3         20.5011    1.5656   15.9097 N.4       1 <0>        -0.3800
     22 H1         20.8855    2.1526   16.6348 H         1 <0>         0.4200
     23 C16        21.5368    0.6393   15.4332 C.3       1 <0>        -0.0500
     24 H2         17.9033   -0.6061   15.7351 H         1 <0>         0.0900
     25 H3         18.3865    0.6244   14.5432 H         1 <0>         0.0800
     26 H4         19.4857   -0.7215   14.9283 H         1 <0>         0.1100
     27 H5         19.7267    0.1367   17.2412 H         1 <0>         0.1400
     28 H6         18.7739    2.3532   17.8177 H         1 <0>         0.1000
     29 H7         17.4876    1.1878   17.4213 H         1 <0>         0.1200
     30 H8         17.3356    2.0953   15.1359 H         1 <0>         0.1100
     31 H9         16.9676    3.9422   17.3868 H         1 <0>         0.4000
     32 H10        15.4361    6.6755   14.8451 H         1 <0>         0.1400
     33 H11        12.6454    5.4254   18.7251 H         1 <0>         0.1500
     34 H12        11.6920    8.0215   18.3947 H         1 <0>         0.4200
     35 H13        14.4405    9.3719   15.9434 H         1 <0>         0.1300
     36 H14        13.1706    8.7644   14.8365 H         1 <0>         0.1300
     37 H15        18.6868    4.0449   14.4717 H         1 <0>         0.1200
     38 H16        19.4872    4.0549   16.0619 H         1 <0>         0.0900
     39 H17        19.5820    1.7750   14.0337 H         1 <0>         0.1300
     40 H18        20.8983    2.9269   14.3619 H         1 <0>         0.1400
     41 H19        22.3755    1.2077   15.0313 H         1 <0>         0.1300
     42 H20        21.8808    0.0213   16.2625 H         1 <0>         0.1200
     43 H21        21.1226    0.0017   14.6522 H         1 <0>         0.1200
@<TRIPOS>BOND
     1    1    2 1
     2    1   24 1
     3    1   25 1
     4    1   26 1
     5    2   21 1
     6    2    3 1
     7    2   27 1
     8    3    4 1
     9    3   28 1
    10    3   29 1
    11    4    5 1
    12    4   19 1
    13    4   30 1
    14    5    6 am
    15    5   31 1
    16    6    7 2
    17    6    8 1
    18    8   13 ar
    19    8    9 ar
    20    9   10 ar
    21    9   32 1
    22   10   18 1
    23   10   11 ar
    24   11   12 ar
    25   11   15 1
    26   12   13 ar
    27   12   33 1
    28   13   14 1
    29   15   16 am
    30   15   34 1
    31   16   17 2
    32   16   18 1
    33   18   35 1
    34   18   36 1
    35   19   20 1
    36   19   37 1
    37   19   38 1
    38   20   21 1
    39   20   39 1
    40   20   40 1
    41   21   22 1
    42   21   23 1
    43   23   41 1
    44   23   42 1
    45   23   43 1
##########                 Name:             smyd3_40
##########          Protonation:                 none
##########               SMILES:   CC1CC(NC(=O)C2=CC3=C(C=C2Cl)NC(=O)C3)CC(C)[NH2+]1
##########            Long Name:   NO_LONG_NAME
##########          FlexRecCode: 1
##########               Number:                  104
##########   Ligand Source File: /proj/zinc22/users/x_andlu/OGG1/revisions/docking/targets/smyd3/db2gen/split_par
##########                 Rank:                    1
##########               Setnum:                    4
##########             Matchnum:                    7
##########                Cloud:                    1
##########        Electrostatic:           -29.936785
##########                 Gist:             0.000000
##########        Van der Waals:           -29.496593
##########  Ligand Polar Desolv:             9.941389
########## Ligand Apolar Desolv:            -1.700196
##########      Internal Energy:             0.000000
##########      Receptor Energy:             0.000000
########## Receptor Desolvation:             0.000000
########## Receptor Hydrophobic:             0.000000
##########         Total Energy:           -51.192184
##########        Ligand Charge:             1.000000
##########            Arbitrary:    +999.9990
##########        Ligand Energy:             0.000000

@<TRIPOS>MOLECULE
smyd3_40      none
   43    45     0     0     0
SMALL
USER_CHARGES

@<TRIPOS>ATOM
      1 C1         21.2647    4.1087   13.7589 C.3       1 <0>        -0.1800
      2 C2         20.1062    3.2556   14.2795 C.3       1 <0>         0.0300
      3 C3         19.0859    4.1553   14.9805 C.3       1 <0>        -0.1500
      4 C4         17.9286    3.2973   15.4996 C.3       1 <0>         0.1400
      5 N1         16.9857    4.1414   16.2377 N.am      1 <0>        -0.7300
      6 C5         15.9587    4.7286   15.5919 C.2       1 <0>         0.5700
      7 O1         15.8148    4.5577   14.3967 O.2       1 <0>        -0.5000
      8 C6         15.0094    5.5786   16.3351 C.ar      1 <0>        -0.1700
      9 C7         14.8433    6.9226   15.9846 C.ar      1 <0>        -0.0200
     10 C8         13.9578    7.7051   16.6821 C.ar      1 <0>        -0.1500
     11 C9         13.2170    7.1823   17.7389 C.ar      1 <0>         0.2000
     12 C10        13.3827    5.8410   18.0884 C.ar      1 <0>        -0.1400
     13 C11        14.2639    5.0452   17.3921 C.ar      1 <0>         0.0600
     14 Cl1        14.4563    3.3768   17.8314 Cl        1 <0>        -0.0100
     15 N2         12.3959    8.1650   18.2821 N.am      1 <0>        -0.6600
     16 C12        12.5285    9.3460   17.6559 C.2       1 <0>         0.5300
     17 O2         11.9367   10.3713   17.9196 O.2       1 <0>        -0.4800
     18 C13        13.5548    9.1569   16.5592 C.3       1 <0>        -0.1100
     19 C14        18.4835    2.2149   16.4299 C.3       1 <0>        -0.1600
     20 C15        19.5277    1.3883   15.6757 C.3       1 <0>         0.0300
     21 C16        18.8716    0.7297   14.4605 C.3       1 <0>        -0.1900
     22 N3         20.6200    2.2607   15.2286 N.4       1 <0>        -0.5000
     23 H1         21.3309    1.7039   14.7783 H         1 <0>         0.4300
     24 H2         21.0199    2.7327   16.0256 H         1 <0>         0.4300
     25 H3         20.8836    4.8478   13.0541 H         1 <0>         0.0800
     26 H4         21.7454    4.6175   14.5945 H         1 <0>         0.0800
     27 H5         21.9905    3.4686   13.2572 H         1 <0>         0.1100
     28 H6         19.6269    2.7462   13.4436 H         1 <0>         0.1500
     29 H7         18.7044    4.8923   14.2738 H         1 <0>         0.1200
     30 H8         19.5643    4.6655   15.8166 H         1 <0>         0.1000
     31 H9         17.4170    2.8284   14.6590 H         1 <0>         0.1100
     32 H10        17.0982    4.2744   17.1919 H         1 <0>         0.4000
     33 H11        15.4102    7.3431   15.1673 H         1 <0>         0.1400
     34 H12        12.8138    5.4246   18.9066 H         1 <0>         0.1500
     35 H13        11.7952    8.0143   19.0287 H         1 <0>         0.4200
     36 H14        14.4140    9.8073   16.7235 H         1 <0>         0.1300
     37 H15        13.1103    9.3487   15.5827 H         1 <0>         0.1300
     38 H16        18.9490    2.6837   17.2968 H         1 <0>         0.0900
     39 H17        17.6716    1.5660   16.7582 H         1 <0>         0.1200
     40 H18        19.9256    0.6174   16.3356 H         1 <0>         0.1400
     41 H19        19.6137    0.1404   13.9218 H         1 <0>         0.0800
     42 H20        18.0624    0.0792   14.7923 H         1 <0>         0.1100
     43 H21        18.4714    1.5002   13.8014 H         1 <0>         0.0800
@<TRIPOS>BOND
     1    1    2 1
     2    1   25 1
     3    1   26 1
     4    1   27 1
     5    2   22 1
     6    2    3 1
     7    2   28 1
     8    3    4 1
     9    3   29 1
    10    3   30 1
    11    4    5 1
    12    4   19 1
    13    4   31 1
    14    5    6 am
    15    5   32 1
    16    6    7 2
    17    6    8 1
    18    8   13 ar
    19    8    9 ar
    20    9   10 ar
    21    9   33 1
    22   10   18 1
    23   10   11 ar
    24   11   12 ar
    25   11   15 1
    26   12   13 ar
    27   12   34 1
    28   13   14 1
    29   15   16 am
    30   15   35 1
    31   16   17 2
    32   16   18 1
    33   18   36 1
    34   18   37 1
    35   19   20 1
    36   19   38 1
    37   19   39 1
    38   20   21 1
    39   20   22 1
    40   20   40 1
    41   21   41 1
    42   21   42 1
    43   21   43 1
    44   22   23 1
    45   22   24 1
##########                 Name:             smyd3_41
##########          Protonation:                 none
##########               SMILES:   CON1CCC(NC(=O)C2=CC3=C(C=C2Cl)NC(=O)C3)CC1
##########            Long Name:   NO_LONG_NAME
##########          FlexRecCode: 1
##########               Number:                  105
##########   Ligand Source File: /proj/zinc22/users/x_andlu/OGG1/revisions/docking/targets/smyd3/db2gen/split_par
##########                 Rank:                    1
##########               Setnum:                    2
##########             Matchnum:                   20
##########                Cloud:                    1
##########        Electrostatic:           -15.649654
##########                 Gist:             0.000000
##########        Van der Waals:           -30.780937
##########  Ligand Polar Desolv:             6.283260
########## Ligand Apolar Desolv:            -1.084323
##########      Internal Energy:             0.000000
##########      Receptor Energy:             0.000000
########## Receptor Desolvation:             0.000000
########## Receptor Hydrophobic:             0.000000
##########         Total Energy:           -41.231655
##########        Ligand Charge:             0.000000
##########            Arbitrary:    +999.9990
##########        Ligand Energy:             0.000000

@<TRIPOS>MOLECULE
smyd3_41      none
   40    42     0     0     0
SMALL
USER_CHARGES

@<TRIPOS>ATOM
      1 C1         21.3625   -0.9049   15.9746 C.3       1 <0>        -0.0000
      2 O1         21.4605    0.4451   15.5164 O.3       1 <0>        -0.2400
      3 N1         20.3621    1.3046   15.9577 N.3       1 <0>        -0.3300
      4 C2         20.7702    2.7152   15.9708 C.3       1 <0>         0.0300
      5 C3         19.6499    3.5662   16.5732 C.3       1 <0>        -0.1200
      6 C4         18.3779    3.3912   15.7389 C.3       1 <0>         0.1400
      7 N2         17.2861    4.1579   16.3443 N.am      1 <0>        -0.7200
      8 C5         16.3060    4.6623   15.5686 C.2       1 <0>         0.5600
      9 O2         16.3280    4.4810   14.3665 O.2       1 <0>        -0.5100
     10 C6         15.2067    5.4344   16.1783 C.ar      1 <0>        -0.1600
     11 C7         14.9854    6.7631   15.8016 C.ar      1 <0>        -0.0200
     12 C8         13.9605    7.4730   16.3747 C.ar      1 <0>        -0.1500
     13 C9         13.1318    6.8912   17.3305 C.ar      1 <0>         0.1900
     14 C10        13.3529    5.5649   17.7065 C.ar      1 <0>        -0.1400
     15 C11        14.3780    4.8433   17.1381 C.ar      1 <0>         0.0500
     16 Cl1        14.6429    3.1947   17.6131 Cl        1 <0>        -0.0100
     17 N3         12.1790    7.8079   17.7623 N.am      1 <0>        -0.6600
     18 C12        12.2970    8.9962   17.1472 C.2       1 <0>         0.5300
     19 O3         11.6002    9.9726   17.3268 O.2       1 <0>        -0.4900
     20 C13        13.4672    8.8904   16.1925 C.3       1 <0>        -0.1100
     21 C14        18.0017    1.9075   15.7012 C.3       1 <0>        -0.1200
     22 C15        19.1698    1.1046   15.1241 C.3       1 <0>         0.0100
     23 H1         22.2137   -1.4768   15.6050 H         1 <0>         0.1000
     24 H2         21.3607   -0.9193   17.0645 H         1 <0>         0.0500
     25 H3         20.4383   -1.3484   15.6039 H         1 <0>         0.0400
     26 H4         20.9688    3.0453   14.9511 H         1 <0>         0.0500
     27 H5         21.6733    2.8262   16.5710 H         1 <0>         0.1000
     28 H6         19.9469    4.6149   16.5684 H         1 <0>         0.0900
     29 H7         19.4599    3.2463   17.5977 H         1 <0>         0.0800
     30 H8         18.5555    3.7489   14.7246 H         1 <0>         0.0900
     31 H9         17.2686    4.3025   17.3032 H         1 <0>         0.4000
     32 H10        15.6189    7.2289   15.0613 H         1 <0>         0.1400
     33 H11        12.7166    5.1030   18.4469 H         1 <0>         0.1500
     34 H12        11.5041    7.6106   18.4305 H         1 <0>         0.4200
     35 H13        13.1386    9.0517   15.1658 H         1 <0>         0.1300
     36 H14        14.2449    9.6054   16.4606 H         1 <0>         0.1300
     37 H15        17.7860    1.5609   16.7119 H         1 <0>         0.0800
     38 H16        17.1211    1.7712   15.0734 H         1 <0>         0.0800
     39 H17        19.3759    1.4423   14.1084 H         1 <0>         0.0500
     40 H18        18.9104    0.0460   15.1094 H         1 <0>         0.1000
@<TRIPOS>BOND
     1    1    2 1
     2    1   23 1
     3    1   24 1
     4    1   25 1
     5    2    3 1
     6    3   22 1
     7    3    4 1
     8    4    5 1
     9    4   26 1
    10    4   27 1
    11    5    6 1
    12    5   28 1
    13    5   29 1
    14    6    7 1
    15    6   21 1
    16    6   30 1
    17    7    8 am
    18    7   31 1
    19    8    9 2
    20    8   10 1
    21   10   15 ar
    22   10   11 ar
    23   11   12 ar
    24   11   32 1
    25   12   20 1
    26   12   13 ar
    27   13   14 ar
    28   13   17 1
    29   14   15 ar
    30   14   33 1
    31   15   16 1
    32   17   18 am
    33   17   34 1
    34   18   19 2
    35   18   20 1
    36   20   35 1
    37   20   36 1
    38   21   22 1
    39   21   37 1
    40   21   38 1
    41   22   39 1
    42   22   40 1
##########                 Name:             smyd3_42
##########          Protonation:                 none
##########               SMILES:   CC[NH+]1CCC(NC(=O)C2=CC3=C(C=C2Cl)NC(=O)C3)CC1
##########            Long Name:   NO_LONG_NAME
##########          FlexRecCode: 1
##########               Number:                  108
##########   Ligand Source File: /proj/zinc22/users/x_andlu/OGG1/revisions/docking/targets/smyd3/db2gen/split_par
##########                 Rank:                    1
##########               Setnum:                    9
##########             Matchnum:                    1
##########                Cloud:                    1
##########        Electrostatic:           -25.481579
##########                 Gist:             0.000000
##########        Van der Waals:           -31.635334
##########  Ligand Polar Desolv:             9.984129
########## Ligand Apolar Desolv:            -2.237666
##########      Internal Energy:             0.000000
##########      Receptor Energy:             0.000000
########## Receptor Desolvation:             0.000000
########## Receptor Hydrophobic:             0.000000
##########         Total Energy:           -49.370449
##########        Ligand Charge:             1.000000
##########            Arbitrary:    +999.9990
##########        Ligand Energy:             0.000000

@<TRIPOS>MOLECULE
smyd3_42      none
   43    45     0     0     0
SMALL
USER_CHARGES

@<TRIPOS>ATOM
      1 C1         19.9746   -1.7599   14.9377 C.3       1 <0>        -0.1900
      2 C2         20.6579   -0.4945   15.4599 C.3       1 <0>        -0.0100
      3 N1         19.6391    0.4541   15.9290 N.4       1 <0>        -0.3900
      4 H1         19.1028    0.0302   16.6712 H         1 <0>         0.4200
      5 C3         20.2961    1.6660   16.4330 C.3       1 <0>        -0.0000
      6 C4         19.2445    2.6246   16.9957 C.3       1 <0>        -0.1600
      7 C5         18.2584    3.0005   15.8860 C.3       1 <0>         0.1400
      8 N2         17.2052    3.8575   16.4360 N.am      1 <0>        -0.7300
      9 C6         16.2193    4.3107   15.6366 C.2       1 <0>         0.5700
     10 O1         16.2040    4.0083   14.4590 O.2       1 <0>        -0.5000
     11 C7         15.1588    5.1738   16.1905 C.ar      1 <0>        -0.1700
     12 C8         14.9607    6.4616   15.6817 C.ar      1 <0>        -0.0200
     13 C9         13.9680    7.2546   16.1998 C.ar      1 <0>        -0.1500
     14 C10        13.1492    6.7978   17.2292 C.ar      1 <0>         0.2000
     15 C11        13.3468    5.5124   17.7368 C.ar      1 <0>        -0.1400
     16 C12        14.3397    4.7083   17.2250 C.ar      1 <0>         0.0600
     17 Cl1        14.5762    3.1118   17.8644 Cl        1 <0>        -0.0100
     18 N3         12.2267    7.7781   17.5800 N.am      1 <0>        -0.6600
     19 C13        12.3627    8.8947   16.8457 C.2       1 <0>         0.5300
     20 O2         11.6948    9.9029   16.9375 O.2       1 <0>        -0.4800
     21 C14        13.5058    8.6584   15.8815 C.3       1 <0>        -0.1100
     22 C15        17.6339    1.7239   15.3153 C.3       1 <0>        -0.1600
     23 C16        18.7454    0.7979   14.8165 C.3       1 <0>        -0.0100
     24 H2         20.7306   -2.4638   14.5896 H         1 <0>         0.1100
     25 H3         19.3946   -2.2168   15.7395 H         1 <0>         0.0800
     26 H4         19.3118   -1.5007   14.1120 H         1 <0>         0.0800
     27 H5         21.2379   -0.0376   14.6581 H         1 <0>         0.1300
     28 H6         21.3207   -0.7537   16.2855 H         1 <0>         0.1300
     29 H7         20.8326    2.1532   15.6187 H         1 <0>         0.1300
     30 H8         20.9997    1.3961   17.2206 H         1 <0>         0.1400
     31 H9         19.7342    3.5246   17.3677 H         1 <0>         0.1200
     32 H10        18.7076    2.1391   17.8107 H         1 <0>         0.0900
     33 H11        18.7860    3.5334   15.0949 H         1 <0>         0.1100
     34 H12        17.2175    4.0988   17.3754 H         1 <0>         0.4000
     35 H13        15.5872    6.8306   14.8830 H         1 <0>         0.1400
     36 H14        12.7178    5.1474   18.5353 H         1 <0>         0.1500
     37 H15        11.5604    7.6678   18.2762 H         1 <0>         0.4200
     38 H16        14.3087    9.3742   16.0579 H         1 <0>         0.1300
     39 H17        13.1559    8.7211   14.8511 H         1 <0>         0.1300
     40 H18        17.0628    1.2186   16.0941 H         1 <0>         0.0900
     41 H19        16.9734    1.9806   14.4871 H         1 <0>         0.1200
     42 H20        19.3150    1.3036   14.0367 H         1 <0>         0.1300
     43 H21        18.3040   -0.1125   14.4110 H         1 <0>         0.1400
@<TRIPOS>BOND
     1    1    2 1
     2    1   24 1
     3    1   25 1
     4    1   26 1
     5    2    3 1
     6    2   27 1
     7    2   28 1
     8    3    4 1
     9    3   23 1
    10    3    5 1
    11    5    6 1
    12    5   29 1
    13    5   30 1
    14    6    7 1
    15    6   31 1
    16    6   32 1
    17    7    8 1
    18    7   22 1
    19    7   33 1
    20    8    9 am
    21    8   34 1
    22    9   10 2
    23    9   11 1
    24   11   16 ar
    25   11   12 ar
    26   12   13 ar
    27   12   35 1
    28   13   21 1
    29   13   14 ar
    30   14   15 ar
    31   14   18 1
    32   15   16 ar
    33   15   36 1
    34   16   17 1
    35   18   19 am
    36   18   37 1
    37   19   20 2
    38   19   21 1
    39   21   38 1
    40   21   39 1
    41   22   23 1
    42   22   40 1
    43   22   41 1
    44   23   42 1
    45   23   43 1
##########                 Name:             smyd3_43
##########          Protonation:                 none
##########               SMILES:   O=C1CC2=C(C=CC(C(=O)NC3CCN(C(=O)F)CC3)=C2)N1
##########            Long Name:   NO_LONG_NAME
##########          FlexRecCode: 1
##########               Number:                  110
##########   Ligand Source File: /proj/zinc22/users/x_andlu/OGG1/revisions/docking/targets/smyd3/db2gen/split_par
##########                 Rank:                    1
##########               Setnum:                    6
##########             Matchnum:                   12
##########                Cloud:                    1
##########        Electrostatic:           -18.883656
##########                 Gist:             0.000000
##########        Van der Waals:           -30.031195
##########  Ligand Polar Desolv:             6.398758
########## Ligand Apolar Desolv:            -1.326332
##########      Internal Energy:             0.000000
##########      Receptor Energy:             0.000000
########## Receptor Desolvation:             0.000000
########## Receptor Hydrophobic:             0.000000
##########         Total Energy:           -43.842422
##########        Ligand Charge:             0.000000
##########            Arbitrary:    +999.9990
##########        Ligand Energy:             0.000000

@<TRIPOS>MOLECULE
smyd3_43      none
   38    40     0     0     0
SMALL
USER_CHARGES

@<TRIPOS>ATOM
      1 O1         11.3473   10.0258   16.9650 O.2       1 <0>        -0.4900
      2 C1         12.0248    9.0216   16.9066 C.2       1 <0>         0.5300
      3 C2         12.9287    8.6121   15.7631 C.3       1 <0>        -0.1200
      4 C3         13.5213    7.2966   16.2145 C.ar      1 <0>        -0.1500
      5 C4         12.9782    7.0386   17.4735 C.ar      1 <0>         0.1700
      6 C5         13.3478    5.8723   18.1472 C.ar      1 <0>        -0.1500
      7 C6         14.2339    4.9910   17.5748 C.ar      1 <0>        -0.0500
      8 C7         14.7723    5.2551   16.3122 C.ar      1 <0>        -0.1600
      9 C8         15.7237    4.3091   15.6972 C.2       1 <0>         0.5700
     10 O2         15.8177    4.2420   14.4868 O.2       1 <0>        -0.5300
     11 N1         16.4884    3.5196   16.4773 N.am      1 <0>        -0.7200
     12 C9         17.4328    2.5806   15.8669 C.3       1 <0>         0.1500
     13 C10        16.7364    1.2385   15.6303 C.3       1 <0>        -0.1500
     14 C11        17.7164    0.2704   14.9602 C.3       1 <0>         0.1300
     15 N2         18.9311    0.1830   15.7821 N.am      1 <0>        -0.6100
     16 C12        19.3959   -1.0126   16.1958 C.2       1 <0>         0.6600
     17 O3         20.4006   -1.0714   16.8745 O.2       1 <0>        -0.5200
     18 F1         18.7434   -2.1455   15.8552 F         1 <0>        -0.1400
     19 C13        19.6292    1.4238   16.1450 C.3       1 <0>         0.1000
     20 C14        18.6277    2.3791   16.8016 C.3       1 <0>        -0.1400
     21 C15        14.4033    6.4224   15.6360 C.ar      1 <0>        -0.0000
     22 N3         12.1134    8.0633   17.8438 N.am      1 <0>        -0.6600
     23 H1         12.3510    8.4772   14.8486 H         1 <0>         0.1300
     24 H2         13.7137    9.3531   15.6123 H         1 <0>         0.1300
     25 H3         12.9351    5.6617   19.1229 H         1 <0>         0.1400
     26 H4         14.5147    4.0914   18.1022 H         1 <0>         0.1300
     27 H5         16.4135    3.5732   17.4429 H         1 <0>         0.4000
     28 H6         17.7801    2.9821   14.9149 H         1 <0>         0.1000
     29 H7         16.4109    0.8244   16.5847 H         1 <0>         0.0700
     30 H8         15.8717    1.3863   14.9835 H         1 <0>         0.0900
     31 H9         17.9730    0.6390   13.9670 H         1 <0>         0.0800
     32 H10        17.2598   -0.7159   14.8772 H         1 <0>         0.1000
     33 H11        20.0418    1.8866   15.2485 H         1 <0>         0.0900
     34 H12        20.4346    1.2012   16.8449 H         1 <0>         0.1000
     35 H13        19.1093    3.3390   16.9885 H         1 <0>         0.0900
     36 H14        18.2842    1.9548   17.7449 H         1 <0>         0.0800
     37 H15        14.8136    6.6357   14.6600 H         1 <0>         0.1400
     38 H16        11.6294    8.0836   18.6841 H         1 <0>         0.4200
@<TRIPOS>BOND
     1    1    2 2
     2    2   22 am
     3    2    3 1
     4    3    4 1
     5    3   23 1
     6    3   24 1
     7    4   21 ar
     8    4    5 ar
     9    5    6 ar
    10    5   22 1
    11    6    7 ar
    12    6   25 1
    13    7    8 ar
    14    7   26 1
    15    8    9 1
    16    8   21 ar
    17    9   10 2
    18    9   11 am
    19   11   12 1
    20   11   27 1
    21   12   20 1
    22   12   13 1
    23   12   28 1
    24   13   14 1
    25   13   29 1
    26   13   30 1
    27   14   15 1
    28   14   31 1
    29   14   32 1
    30   15   16 am
    31   15   19 1
    32   16   17 2
    33   16   18 1
    34   19   20 1
    35   19   33 1
    36   19   34 1
    37   20   35 1
    38   20   36 1
    39   21   37 1
    40   22   38 1
##########                 Name:             smyd3_48
##########          Protonation:                 none
##########               SMILES:   O=C1CC2=C(C=CC(C(=O)NC3CC[NH+](CCF)CC3)=C2)N1
##########            Long Name:   NO_LONG_NAME
##########          FlexRecCode: 1
##########               Number:                  125
##########   Ligand Source File: /proj/zinc22/users/x_andlu/OGG1/revisions/docking/targets/smyd3/db2gen/split_par
##########                 Rank:                    1
##########               Setnum:                    8
##########             Matchnum:                    1
##########                Cloud:                    1
##########        Electrostatic:           -29.740852
##########                 Gist:             0.000000
##########        Van der Waals:           -29.164116
##########  Ligand Polar Desolv:             9.660483
########## Ligand Apolar Desolv:            -2.062003
##########      Internal Energy:             0.000000
##########      Receptor Energy:             0.000000
########## Receptor Desolvation:             0.000000
########## Receptor Hydrophobic:             0.000000
##########         Total Energy:           -51.306488
##########        Ligand Charge:             1.000000
##########            Arbitrary:    +999.9990
##########        Ligand Energy:             0.000000

@<TRIPOS>MOLECULE
smyd3_48      none
   43    45     0     0     0
SMALL
USER_CHARGES

@<TRIPOS>ATOM
      1 O1         11.2105    9.6818   17.0526 O.2       1 <0>        -0.4800
      2 C1         11.9633    8.7344   16.9713 C.2       1 <0>         0.5300
      3 C2         12.8896    8.4185   15.8161 C.3       1 <0>        -0.1200
      4 C3         13.5848    7.1444   16.2388 C.ar      1 <0>        -0.1500
      5 C4         13.0706    6.8206   17.4946 C.ar      1 <0>         0.1900
      6 C5         13.5328    5.6733   18.1434 C.ar      1 <0>        -0.1500
      7 C6         14.4807    4.8743   17.5494 C.ar      1 <0>        -0.0500
      8 C7         14.9900    5.2040   16.2902 C.ar      1 <0>        -0.1800
      9 C8         16.0075    4.3461   15.6520 C.2       1 <0>         0.5700
     10 O2         16.0989    4.3102   14.4401 O.2       1 <0>        -0.5300
     11 N1         16.8352    3.6025   16.4126 N.am      1 <0>        -0.7300
     12 C9         17.8451    2.7511   15.7792 C.3       1 <0>         0.1400
     13 C10        17.2558    1.3607   15.5243 C.3       1 <0>        -0.1600
     14 C11        18.3388    0.4536   14.9362 C.3       1 <0>        -0.0100
     15 N2         19.4582    0.3469   15.8796 N.4       1 <0>        -0.3800
     16 H1         19.1188    0.0019   16.7649 H         1 <0>         0.4300
     17 C12        20.4597   -0.5855   15.3453 C.3       1 <0>        -0.0400
     18 C13        20.0105   -2.0238   15.6115 C.3       1 <0>         0.0400
     19 F1         19.8764   -2.2229   16.9898 F         1 <0>        -0.1800
     20 C14        20.0737    1.6653   16.0735 C.3       1 <0>         0.0000
     21 C15        19.0574    2.6189   16.7053 C.3       1 <0>        -0.1600
     22 C16        14.5284    6.3525   15.6392 C.ar      1 <0>         0.0000
     23 N3         12.1313    7.7678   17.8889 N.am      1 <0>        -0.6600
     24 H2         12.3188    8.2572   14.9016 H         1 <0>         0.1300
     25 H3         13.6139    9.2210   15.6767 H         1 <0>         0.1300
     26 H4         13.1433    5.4123   19.1163 H         1 <0>         0.1400
     27 H5         14.8328    3.9885   18.0572 H         1 <0>         0.1300
     28 H6         16.7622    3.6312   17.3795 H         1 <0>         0.4100
     29 H7         18.1556    3.1956   14.8337 H         1 <0>         0.1100
     30 H8         16.8986    0.9389   16.4638 H         1 <0>         0.0900
     31 H9         16.4264    1.4402   14.8215 H         1 <0>         0.1200
     32 H10        18.6951    0.8762   13.9965 H         1 <0>         0.1400
     33 H11        17.9222   -0.5368   14.7536 H         1 <0>         0.1400
     34 H12        20.5642   -0.4305   14.2715 H         1 <0>         0.1400
     35 H13        21.4181   -0.4081   15.8331 H         1 <0>         0.1400
     36 H14        19.0520   -2.2013   15.1238 H         1 <0>         0.1000
     37 H15        20.7536   -2.7158   15.2151 H         1 <0>         0.1000
     38 H16        20.3929    2.0620   15.1097 H         1 <0>         0.1400
     39 H17        20.9380    1.5686   16.7304 H         1 <0>         0.1400
     40 H18        19.5158    3.5977   16.8468 H         1 <0>         0.1200
     41 H19        18.7375    2.2241   17.6696 H         1 <0>         0.1000
     42 H20        14.9155    6.6161   14.6661 H         1 <0>         0.1500
     43 H21        11.6518    7.7341   18.7315 H         1 <0>         0.4200
@<TRIPOS>BOND
     1    1    2 2
     2    2   23 am
     3    2    3 1
     4    3    4 1
     5    3   24 1
     6    3   25 1
     7    4   22 ar
     8    4    5 ar
     9    5    6 ar
    10    5   23 1
    11    6    7 ar
    12    6   26 1
    13    7    8 ar
    14    7   27 1
    15    8    9 1
    16    8   22 ar
    17    9   10 2
    18    9   11 am
    19   11   12 1
    20   11   28 1
    21   12   21 1
    22   12   13 1
    23   12   29 1
    24   13   14 1
    25   13   30 1
    26   13   31 1
    27   14   15 1
    28   14   32 1
    29   14   33 1
    30   15   16 1
    31   15   17 1
    32   15   20 1
    33   17   18 1
    34   17   34 1
    35   17   35 1
    36   18   19 1
    37   18   36 1
    38   18   37 1
    39   20   21 1
    40   20   38 1
    41   20   39 1
    42   21   40 1
    43   21   41 1
    44   22   42 1
    45   23   43 1
##########                 Name:             smyd3_49
##########          Protonation:                 none
##########               SMILES:   CC1C[N@H+](C)CCC1N(C)C(=O)C1=CC=C2NC(=O)CC2=C1
##########            Long Name:   NO_LONG_NAME
##########          FlexRecCode: 1
##########               Number:                  132
##########   Ligand Source File: /proj/zinc22/users/x_andlu/OGG1/revisions/docking/targets/smyd3/db2gen/split_par
##########                 Rank:                    1
##########               Setnum:                   11
##########             Matchnum:                   15
##########                Cloud:                    1
##########        Electrostatic:           -17.777426
##########                 Gist:             0.000000
##########        Van der Waals:           -31.940557
##########  Ligand Polar Desolv:            11.450772
########## Ligand Apolar Desolv:            -2.455497
##########      Internal Energy:             0.000000
##########      Receptor Energy:             0.000000
########## Receptor Desolvation:             0.000000
########## Receptor Hydrophobic:             0.000000
##########         Total Energy:           -40.722710
##########        Ligand Charge:             1.000000
##########            Arbitrary:    +999.9990
##########        Ligand Energy:             0.000000

@<TRIPOS>MOLECULE
smyd3_49      none
   46    48     0     0     0
SMALL
USER_CHARGES

@<TRIPOS>ATOM
      1 C1         15.9409    1.3574   18.1198 C.3       1 <0>        -0.1500
      2 C2         17.0899    1.6908   17.1661 C.3       1 <0>        -0.1300
      3 C3         18.1682    0.6098   17.2675 C.3       1 <0>        -0.0000
      4 N1         19.2708    0.9260   16.3516 N.4       1 <0>        -0.3800
      5 H1         20.0029    0.2400   16.4589 H         1 <0>         0.4300
      6 C4         19.8008    2.2591   16.6676 C.3       1 <0>        -0.0600
      7 C5         18.7875    0.9089   14.9658 C.3       1 <0>        -0.0000
      8 C6         17.7332    2.0015   14.7757 C.3       1 <0>        -0.1600
      9 C7         16.5626    1.7449   15.7293 C.3       1 <0>         0.1400
     10 N2         15.5845    2.8287   15.6071 N.am      1 <0>        -0.6100
     11 C8         14.2082    2.5311   15.2027 C.3       1 <0>         0.0500
     12 C9         15.9507    4.0994   15.8667 C.2       1 <0>         0.5700
     13 O1         17.0966    4.4545   15.6682 O.2       1 <0>        -0.5200
     14 C10        14.9611    5.0601   16.3920 C.ar      1 <0>        -0.1700
     15 C11        14.3156    4.8122   17.6063 C.ar      1 <0>        -0.0700
     16 C12        13.3973    5.7099   18.0981 C.ar      1 <0>        -0.1500
     17 C13        13.0943    6.8710   17.3842 C.ar      1 <0>         0.1800
     18 N3         12.2122    7.9071   17.6721 N.am      1 <0>        -0.6600
     19 C14        12.2085    8.8552   16.7205 C.2       1 <0>         0.5300
     20 O2         11.5379    9.8657   16.7131 O.2       1 <0>        -0.4800
     21 C15        13.1980    8.4251   15.6584 C.3       1 <0>        -0.1200
     22 C16        13.7366    7.1093   16.1721 C.ar      1 <0>        -0.1500
     23 C17        14.6581    6.2226   15.6752 C.ar      1 <0>         0.0000
     24 H2         16.3168    1.3190   19.1422 H         1 <0>         0.0700
     25 H3         15.1715    2.1256   18.0442 H         1 <0>         0.0700
     26 H4         15.5160    0.3899   17.8524 H         1 <0>         0.0700
     27 H5         17.5171    2.6572   17.4337 H         1 <0>         0.1000
     28 H6         17.7399   -0.3562   16.9999 H         1 <0>         0.1300
     29 H7         18.5455    0.5689   18.2892 H         1 <0>         0.1400
     30 H8         20.6198    2.4949   15.9879 H         1 <0>         0.1300
     31 H9         20.1660    2.2709   17.6944 H         1 <0>         0.1200
     32 H10        19.0099    3.0007   16.5546 H         1 <0>         0.1300
     33 H11        19.6223    1.0885   14.2882 H         1 <0>         0.1400
     34 H12        18.3460   -0.0634   14.7473 H         1 <0>         0.1300
     35 H13        17.3743    1.9860   13.7467 H         1 <0>         0.1200
     36 H14        18.1736    2.9744   14.9938 H         1 <0>         0.0900
     37 H15        16.0885    0.7960   15.4791 H         1 <0>         0.1200
     38 H16        13.6320    3.4557   15.1671 H         1 <0>         0.0700
     39 H17        14.2116    2.0669   14.2164 H         1 <0>         0.1000
     40 H18        13.7570    1.8492   15.9235 H         1 <0>         0.0700
     41 H19        14.5414    3.9143   18.1624 H         1 <0>         0.1600
     42 H20        12.9055    5.5142   19.0395 H         1 <0>         0.1400
     43 H21        11.6617    7.9413   18.4701 H         1 <0>         0.4200
     44 H22        14.0007    9.1565   15.5652 H         1 <0>         0.1300
     45 H23        12.6948    8.2846   14.7017 H         1 <0>         0.1300
     46 H24        15.1479    6.4211   14.7333 H         1 <0>         0.1400
@<TRIPOS>BOND
     1    1    2 1
     2    1   24 1
     3    1   25 1
     4    1   26 1
     5    2    9 1
     6    2    3 1
     7    2   27 1
     8    3    4 1
     9    3   28 1
    10    3   29 1
    11    4    5 1
    12    4    6 1
    13    4    7 1
    14    6   30 1
    15    6   31 1
    16    6   32 1
    17    7    8 1
    18    7   33 1
    19    7   34 1
    20    8    9 1
    21    8   35 1
    22    8   36 1
    23    9   10 1
    24    9   37 1
    25   10   11 1
    26   10   12 am
    27   11   38 1
    28   11   39 1
    29   11   40 1
    30   12   13 2
    31   12   14 1
    32   14   23 ar
    33   14   15 ar
    34   15   16 ar
    35   15   41 1
    36   16   17 ar
    37   16   42 1
    38   17   22 ar
    39   17   18 1
    40   18   19 am
    41   18   43 1
    42   19   20 2
    43   19   21 1
    44   21   22 1
    45   21   44 1
    46   21   45 1
    47   22   23 ar
    48   23   46 1
##########                 Name:             smyd3_52
##########          Protonation:                 none
##########               SMILES:   CC1CC(N(C)C(=O)C2=CC=C3NC(=O)CC3=C2)CC[N@@H+]1C
##########            Long Name:   NO_LONG_NAME
##########          FlexRecCode: 1
##########               Number:                  140
##########   Ligand Source File: /proj/zinc22/users/x_andlu/OGG1/revisions/docking/targets/smyd3/db2gen/split_par
##########                 Rank:                    1
##########               Setnum:                   19
##########             Matchnum:                    6
##########                Cloud:                    1
##########        Electrostatic:           -18.295750
##########                 Gist:             0.000000
##########        Van der Waals:           -32.370693
##########  Ligand Polar Desolv:             9.905567
########## Ligand Apolar Desolv:            -2.352056
##########      Internal Energy:             0.000000
##########      Receptor Energy:             0.000000
########## Receptor Desolvation:             0.000000
########## Receptor Hydrophobic:             0.000000
##########         Total Energy:           -43.112930
##########        Ligand Charge:             1.000000
##########            Arbitrary:    +999.9990
##########        Ligand Energy:             0.000000

@<TRIPOS>MOLECULE
smyd3_52      none
   46    48     0     0     0
SMALL
USER_CHARGES

@<TRIPOS>ATOM
      1 C1         19.4084    0.7539   15.1489 C.3       1 <0>        -0.1900
      2 C2         18.0422    0.1101   15.3930 C.3       1 <0>         0.0300
      3 C3         16.9412    1.1402   15.1309 C.3       1 <0>        -0.1500
      4 C4         17.1233    2.3268   16.0817 C.3       1 <0>         0.1300
      5 N1         16.0281    3.2807   15.8900 N.am      1 <0>        -0.6100
      6 C5         14.7101    2.8061   15.4614 C.3       1 <0>         0.0600
      7 C6         16.2331    4.5948   16.1080 C.2       1 <0>         0.5800
      8 O1         17.3344    5.0767   15.9260 O.2       1 <0>        -0.5200
      9 C7         15.1205    5.4490   16.5678 C.ar      1 <0>        -0.1700
     10 C8         14.4747    5.1737   17.7759 C.ar      1 <0>        -0.0200
     11 C9         13.4383    5.9697   18.2038 C.ar      1 <0>        -0.1400
     12 C10        13.0224    7.0591   17.4358 C.ar      1 <0>         0.1800
     13 N2         12.0154    7.9924   17.6582 N.am      1 <0>        -0.6600
     14 C11        11.9295    8.8977   16.6694 C.2       1 <0>         0.5300
     15 O2         11.1449    9.8201   16.6036 O.2       1 <0>        -0.4900
     16 C12        12.9956    8.5501   15.6523 C.3       1 <0>        -0.1100
     17 C13        13.6698    7.3277   16.2327 C.ar      1 <0>        -0.1500
     18 C14        14.7049    6.5398   15.7967 C.ar      1 <0>        -0.0400
     19 C15        17.1133    1.8190   17.5264 C.3       1 <0>        -0.1600
     20 C16        18.2088    0.7647   17.6983 C.3       1 <0>        -0.0100
     21 N3         17.9627   -0.3558   16.7826 N.4       1 <0>        -0.3800
     22 H1         17.0445   -0.7358   16.9570 H         1 <0>         0.4200
     23 C17        18.9720   -1.3996   17.0060 C.3       1 <0>        -0.0500
     24 H2         19.4679    1.0999   14.1170 H         1 <0>         0.0800
     25 H3         19.5372    1.6000   15.8238 H         1 <0>         0.1100
     26 H4         20.1937    0.0204   15.3319 H         1 <0>         0.0800
     27 H5         17.9143   -0.7365   14.7186 H         1 <0>         0.1400
     28 H6         15.9673    0.6820   15.3029 H         1 <0>         0.0900
     29 H7         17.0038    1.4872   14.0995 H         1 <0>         0.1200
     30 H8         18.0743    2.8173   15.8744 H         1 <0>         0.1200
     31 H9         14.0298    3.6533   15.3734 H         1 <0>         0.0700
     32 H10        14.7991    2.3098   14.4950 H         1 <0>         0.0700
     33 H11        14.3205    2.1023   16.1968 H         1 <0>         0.0900
     34 H12        14.7909    4.3331   18.3757 H         1 <0>         0.1400
     35 H13        12.9438    5.7514   19.1389 H         1 <0>         0.1400
     36 H14        11.4402    7.9900   18.4393 H         1 <0>         0.4200
     37 H15        12.5428    8.3156   14.6890 H         1 <0>         0.1300
     38 H16        13.7089    9.3682   15.5515 H         1 <0>         0.1300
     39 H17        15.1972    6.7609   14.8613 H         1 <0>         0.1400
     40 H18        17.2988    2.6509   18.2059 H         1 <0>         0.1200
     41 H19        16.1426    1.3760   17.7497 H         1 <0>         0.0900
     42 H20        19.1787    1.2095   17.4753 H         1 <0>         0.1400
     43 H21        18.2042    0.4008   18.7258 H         1 <0>         0.1400
     44 H22        18.9139   -1.7463   18.0378 H         1 <0>         0.1300
     45 H23        18.7863   -2.2349   16.3309 H         1 <0>         0.1200
     46 H24        19.9647   -0.9919   16.8152 H         1 <0>         0.1200
@<TRIPOS>BOND
     1    1    2 1
     2    1   24 1
     3    1   25 1
     4    1   26 1
     5    2   21 1
     6    2    3 1
     7    2   27 1
     8    3    4 1
     9    3   28 1
    10    3   29 1
    11    4    5 1
    12    4   19 1
    13    4   30 1
    14    5    6 1
    15    5    7 am
    16    6   31 1
    17    6   32 1
    18    6   33 1
    19    7    8 2
    20    7    9 1
    21    9   18 ar
    22    9   10 ar
    23   10   11 ar
    24   10   34 1
    25   11   12 ar
    26   11   35 1
    27   12   17 ar
    28   12   13 1
    29   13   14 am
    30   13   36 1
    31   14   15 2
    32   14   16 1
    33   16   17 1
    34   16   37 1
    35   16   38 1
    36   17   18 ar
    37   18   39 1
    38   19   20 1
    39   19   40 1
    40   19   41 1
    41   20   21 1
    42   20   42 1
    43   20   43 1
    44   21   22 1
    45   21   23 1
    46   23   44 1
    47   23   45 1
    48   23   46 1
##########                 Name:             smyd3_53
##########          Protonation:                 none
##########               SMILES:   CON1CCC(N(C)C(=O)C2=CC=C3NC(=O)CC3=C2)CC1
##########            Long Name:   NO_LONG_NAME
##########          FlexRecCode: 1
##########               Number:                  142
##########   Ligand Source File: /proj/zinc22/users/x_andlu/OGG1/revisions/docking/targets/smyd3/db2gen/split_par
##########                 Rank:                    1
##########               Setnum:                   56
##########             Matchnum:                    8
##########                Cloud:                    1
##########        Electrostatic:           -13.280499
##########                 Gist:             0.000000
##########        Van der Waals:           -32.591499
##########  Ligand Polar Desolv:             6.014373
########## Ligand Apolar Desolv:            -1.434660
##########      Internal Energy:             0.000000
##########      Receptor Energy:             0.000000
########## Receptor Desolvation:             0.000000
########## Receptor Hydrophobic:             0.000000
##########         Total Energy:           -41.292286
##########        Ligand Charge:             0.000000
##########            Arbitrary:    +999.9990
##########        Ligand Energy:             0.000000

@<TRIPOS>MOLECULE
smyd3_53      none
   43    45     0     0     0
SMALL
USER_CHARGES

@<TRIPOS>ATOM
      1 C1         20.7594   -0.7030   16.6749 C.3       1 <0>        -0.0000
      2 O1         19.4795   -1.2740   16.9537 O.3       1 <0>        -0.2400
      3 N1         18.3659   -0.3354   16.8144 N.3       1 <0>        -0.3300
      4 C2         18.4660    0.7496   17.7989 C.3       1 <0>         0.0300
      5 C3         17.2149    1.6275   17.7213 C.3       1 <0>        -0.1200
      6 C4         17.0892    2.2049   16.3088 C.3       1 <0>         0.1300
      7 N2         15.8620    2.9992   16.2119 N.am      1 <0>        -0.6100
      8 C5         14.5612    2.3700   16.4531 C.3       1 <0>         0.0700
      9 C6         15.9298    4.3089   15.9008 C.2       1 <0>         0.5700
     10 O2         16.8318    4.7207   15.1973 O.2       1 <0>        -0.5300
     11 C7         14.9090    5.2431   16.4143 C.ar      1 <0>        -0.1500
     12 C8         14.2820    4.9968   17.6385 C.ar      1 <0>        -0.0300
     13 C9         13.3316    5.8679   18.1172 C.ar      1 <0>        -0.1400
     14 C10        12.9850    7.0051   17.3849 C.ar      1 <0>         0.1700
     15 N3         12.0686    8.0148   17.6596 N.am      1 <0>        -0.6600
     16 C11        12.0276    8.9455   16.6918 C.2       1 <0>         0.5300
     17 O3         11.3228    9.9323   16.6709 O.2       1 <0>        -0.4900
     18 C12        13.0266    8.5316   15.6321 C.3       1 <0>        -0.1100
     19 C13        13.6164    7.2452   16.1637 C.ar      1 <0>        -0.1500
     20 C14        14.5626    6.3817   15.6792 C.ar      1 <0>        -0.0400
     21 C15        17.0356    1.0552   15.2988 C.3       1 <0>        -0.1200
     22 C16        18.2920    0.1941   15.4466 C.3       1 <0>         0.0100
     23 H1         21.5311   -1.4625   16.8005 H         1 <0>         0.0400
     24 H2         20.7768   -0.3333   15.6497 H         1 <0>         0.1000
     25 H3         20.9466    0.1222   17.3620 H         1 <0>         0.0500
     26 H4         19.3475    1.3540   17.5850 H         1 <0>         0.0500
     27 H5         18.5504    0.3254   18.7994 H         1 <0>         0.1000
     28 H6         17.2964    2.4417   18.4414 H         1 <0>         0.0800
     29 H7         16.3338    1.0274   17.9488 H         1 <0>         0.0800
     30 H8         17.9506    2.8380   16.0960 H         1 <0>         0.1000
     31 H9         13.7715    3.1122   16.3368 H         1 <0>         0.0600
     32 H10        14.4097    1.5627   15.7366 H         1 <0>         0.0800
     33 H11        14.5348    1.9670   17.4655 H         1 <0>         0.0800
     34 H12        14.5449    4.1195   18.2110 H         1 <0>         0.1400
     35 H13        12.8512    5.6715   19.0642 H         1 <0>         0.1400
     36 H14        11.5208    8.0435   18.4595 H         1 <0>         0.4200
     37 H15        12.5242    8.3572   14.6806 H         1 <0>         0.1300
     38 H16        13.8016    9.2900   15.5206 H         1 <0>         0.1300
     39 H17        15.0414    6.5813   14.7318 H         1 <0>         0.1400
     40 H18        16.1522    0.4456   15.4879 H         1 <0>         0.0800
     41 H19        16.9892    1.4607   14.2880 H         1 <0>         0.0800
     42 H20        19.1744    0.8009   15.2437 H         1 <0>         0.0500
     43 H21        18.2499   -0.6338   14.7387 H         1 <0>         0.1000
@<TRIPOS>BOND
     1    1    2 1
     2    1   23 1
     3    1   24 1
     4    1   25 1
     5    2    3 1
     6    3   22 1
     7    3    4 1
     8    4    5 1
     9    4   26 1
    10    4   27 1
    11    5    6 1
    12    5   28 1
    13    5   29 1
    14    6    7 1
    15    6   21 1
    16    6   30 1
    17    7    8 1
    18    7    9 am
    19    8   31 1
    20    8   32 1
    21    8   33 1
    22    9   10 2
    23    9   11 1
    24   11   20 ar
    25   11   12 ar
    26   12   13 ar
    27   12   34 1
    28   13   14 ar
    29   13   35 1
    30   14   19 ar
    31   14   15 1
    32   15   16 am
    33   15   36 1
    34   16   17 2
    35   16   18 1
    36   18   19 1
    37   18   37 1
    38   18   38 1
    39   19   20 ar
    40   20   39 1
    41   21   22 1
    42   21   40 1
    43   21   41 1
    44   22   42 1
    45   22   43 1
##########                 Name:             smyd3_56
##########          Protonation:                 none
##########               SMILES:   CC[NH+]1CCC(N(C)C(=O)C2=CC=C3NC(=O)CC3=C2)CC1
##########            Long Name:   NO_LONG_NAME
##########          FlexRecCode: 1
##########               Number:                  150
##########   Ligand Source File: /proj/zinc22/users/x_andlu/OGG1/revisions/docking/targets/smyd3/db2gen/split_par
##########                 Rank:                    1
##########               Setnum:                   57
##########             Matchnum:                    1
##########                Cloud:                    1
##########        Electrostatic:           -20.101542
##########                 Gist:             0.000000
##########        Van der Waals:           -32.482006
##########  Ligand Polar Desolv:             9.727343
########## Ligand Apolar Desolv:            -2.358881
##########      Internal Energy:             0.000000
##########      Receptor Energy:             0.000000
########## Receptor Desolvation:             0.000000
########## Receptor Hydrophobic:             0.000000
##########         Total Energy:           -45.215088
##########        Ligand Charge:             1.000000
##########            Arbitrary:    +999.9990
##########        Ligand Energy:             0.000000

@<TRIPOS>MOLECULE
smyd3_56      none
   46    48     0     0     0
SMALL
USER_CHARGES

@<TRIPOS>ATOM
      1 C1         20.9024   -0.4642   16.5359 C.3       1 <0>        -0.1900
      2 C2         19.6111   -1.1629   16.1058 C.3       1 <0>        -0.0100
      3 N1         18.5391   -0.1683   15.9666 N.4       1 <0>        -0.3900
      4 H1         17.6879   -0.6300   15.6829 H         1 <0>         0.4200
      5 C3         18.3245    0.5012   17.2552 C.3       1 <0>        -0.0000
      6 C4         17.1560    1.4820   17.1364 C.3       1 <0>        -0.1600
      7 C5         17.4804    2.5265   16.0645 C.3       1 <0>         0.1300
      8 N2         16.3347    3.4233   15.8920 N.am      1 <0>        -0.6100
      9 C6         15.0375    2.8831   15.4775 C.3       1 <0>         0.0600
     10 C7         16.4743    4.7451   16.1146 C.2       1 <0>         0.5800
     11 O1         17.5468    5.2843   15.9212 O.2       1 <0>        -0.5200
     12 C8         15.3253    5.5383   16.5931 C.ar      1 <0>        -0.1700
     13 C9         14.7103    5.2240   17.8078 C.ar      1 <0>        -0.0200
     14 C10        13.6391    5.9627   18.2529 C.ar      1 <0>        -0.1400
     15 C11        13.1574    7.0328   17.4963 C.ar      1 <0>         0.1800
     16 N3         12.1056    7.9108   17.7360 N.am      1 <0>        -0.6600
     17 C12        11.9602    8.8152   16.7535 C.2       1 <0>         0.5300
     18 O2         11.1275    9.6954   16.7023 O.2       1 <0>        -0.4900
     19 C13        13.0305    8.5291   15.7216 C.3       1 <0>        -0.1100
     20 C14        13.7781    7.3422   16.2853 C.ar      1 <0>        -0.1500
     21 C15        14.8437    6.6099   15.8336 C.ar      1 <0>        -0.0400
     22 C16        17.7763    1.8136   14.7418 C.3       1 <0>        -0.1600
     23 C17        18.9207    0.8190   14.9497 C.3       1 <0>        -0.0100
     24 H2         21.6979   -1.2022   16.6391 H         1 <0>         0.1100
     25 H3         21.1853    0.2720   15.7834 H         1 <0>         0.0800
     26 H4         20.7442    0.0355   17.4916 H         1 <0>         0.0800
     27 H5         19.3282   -1.8991   16.8582 H         1 <0>         0.1300
     28 H6         19.7694   -1.6627   15.1500 H         1 <0>         0.1300
     29 H7         19.2269    1.0442   17.5366 H         1 <0>         0.1300
     30 H8         18.0968   -0.2440   18.0173 H         1 <0>         0.1400
     31 H9         16.9995    1.9792   18.0937 H         1 <0>         0.1200
     32 H10        16.2527    0.9405   16.8557 H         1 <0>         0.0900
     33 H11        18.3527    3.1040   16.3704 H         1 <0>         0.1200
     34 H12        14.3134    3.6944   15.4028 H         1 <0>         0.0700
     35 H13        15.1397    2.3970   14.5073 H         1 <0>         0.0700
     36 H14        14.6945    2.1564   16.2138 H         1 <0>         0.0900
     37 H15        15.0772    4.3981   18.3990 H         1 <0>         0.1400
     38 H16        13.1683    5.7141   19.1926 H         1 <0>         0.1400
     39 H17        11.5411    7.8743   18.5240 H         1 <0>         0.4200
     40 H18        12.5787    8.2759   14.7625 H         1 <0>         0.1300
     41 H19        13.6970    9.3850   15.6150 H         1 <0>         0.1300
     42 H20        15.3118    6.8607   14.8932 H         1 <0>         0.1400
     43 H21        16.8866    1.2788   14.4096 H         1 <0>         0.0900
     44 H22        18.0627    2.5478   13.9888 H         1 <0>         0.1200
     45 H23        19.8103    1.3552   15.2803 H         1 <0>         0.1300
     46 H24        19.1327    0.3090   14.0101 H         1 <0>         0.1400
@<TRIPOS>BOND
     1    1    2 1
     2    1   24 1
     3    1   25 1
     4    1   26 1
     5    2    3 1
     6    2   27 1
     7    2   28 1
     8    3    4 1
     9    3   23 1
    10    3    5 1
    11    5    6 1
    12    5   29 1
    13    5   30 1
    14    6    7 1
    15    6   31 1
    16    6   32 1
    17    7    8 1
    18    7   22 1
    19    7   33 1
    20    8    9 1
    21    8   10 am
    22    9   34 1
    23    9   35 1
    24    9   36 1
    25   10   11 2
    26   10   12 1
    27   12   21 ar
    28   12   13 ar
    29   13   14 ar
    30   13   37 1
    31   14   15 ar
    32   14   38 1
    33   15   20 ar
    34   15   16 1
    35   16   17 am
    36   16   39 1
    37   17   18 2
    38   17   19 1
    39   19   20 1
    40   19   40 1
    41   19   41 1
    42   20   21 ar
    43   21   42 1
    44   22   23 1
    45   22   43 1
    46   22   44 1
    47   23   45 1
    48   23   46 1
##########                 Name:             smyd3_62
##########          Protonation:                 none
##########               SMILES:   NC(=O)N1CCC(NC(=O)C2=CC3=C(C=C2)NC(=O)C3)CC1
##########            Long Name:   NO_LONG_NAME
##########          FlexRecCode: 1
##########               Number:                  161
##########   Ligand Source File: /proj/zinc22/users/x_andlu/OGG1/revisions/docking/targets/smyd3/db2gen/split_par
##########                 Rank:                    1
##########               Setnum:                    5
##########             Matchnum:                    9
##########                Cloud:                    1
##########        Electrostatic:           -18.910311
##########                 Gist:             0.000000
##########        Van der Waals:           -30.674454
##########  Ligand Polar Desolv:             6.702176
########## Ligand Apolar Desolv:            -0.708492
##########      Internal Energy:             0.000000
##########      Receptor Energy:             0.000000
########## Receptor Desolvation:             0.000000
########## Receptor Hydrophobic:             0.000000
##########         Total Energy:           -43.591080
##########        Ligand Charge:             0.000000
##########            Arbitrary:    +999.9990
##########        Ligand Energy:             0.000000

@<TRIPOS>MOLECULE
smyd3_62      none
   40    42     0     0     0
SMALL
USER_CHARGES

@<TRIPOS>ATOM
      1 N1         20.0916   -1.7106   15.3199 N.am      1 <0>        -0.8700
      2 C1         20.1902   -0.6160   16.1002 C.2       1 <0>         0.7100
      3 O1         20.7896   -0.6744   17.1565 O.2       1 <0>        -0.5900
      4 N2         19.6291    0.5445   15.7070 N.am      1 <0>        -0.6300
      5 C2         18.4251    0.5464   14.8649 C.3       1 <0>         0.1100
      6 C3         17.3538    1.4114   15.5462 C.3       1 <0>        -0.1500
      7 C4         17.9293    2.8023   15.8225 C.3       1 <0>         0.1500
      8 N3         16.8999    3.6423   16.4397 N.am      1 <0>        -0.7200
      9 C5         16.0801    4.3813   15.6662 C.2       1 <0>         0.5700
     10 O2         16.1949    4.3508   14.4562 O.2       1 <0>        -0.5300
     11 C6         15.0431    5.2277   16.2881 C.ar      1 <0>        -0.1600
     12 C7         14.5835    6.3744   15.6327 C.ar      1 <0>        -0.0000
     13 C8         13.6187    7.1546   16.2190 C.ar      1 <0>        -0.1500
     14 C9         13.0865    6.8225   17.4618 C.ar      1 <0>         0.1700
     15 C10        13.5466    5.6770   18.1149 C.ar      1 <0>        -0.1500
     16 C11        14.5091    4.8858   17.5336 C.ar      1 <0>        -0.0500
     17 N4         12.1324    7.7604   17.8419 N.am      1 <0>        -0.6600
     18 C12        11.9738    8.7294   16.9250 C.2       1 <0>         0.5300
     19 O3         11.2124    9.6707   16.9962 O.2       1 <0>        -0.4900
     20 C13        12.9242    8.4258   15.7865 C.3       1 <0>        -0.1200
     21 C14        19.1252    2.6824   16.7699 C.3       1 <0>        -0.1400
     22 C15        20.2133    1.8318   16.1072 C.3       1 <0>         0.1300
     23 H1         20.4989   -2.5449   15.6012 H         1 <0>         0.4200
     24 H2         19.6136   -1.6641   14.4773 H         1 <0>         0.4000
     25 H3         18.6648    0.9607   13.8856 H         1 <0>         0.0800
     26 H4         18.0563   -0.4731   14.7522 H         1 <0>         0.0800
     27 H5         17.0529    0.9489   16.4862 H         1 <0>         0.0700
     28 H6         16.4875    1.4998   14.8905 H         1 <0>         0.0800
     29 H7         18.2527    3.2543   14.8848 H         1 <0>         0.0900
     30 H8         16.8084    3.6666   17.4050 H         1 <0>         0.4000
     31 H9         14.9865    6.6451   14.6679 H         1 <0>         0.1400
     32 H10        13.1413    5.4090   19.0794 H         1 <0>         0.1400
     33 H11        14.8567    3.9992   18.0432 H         1 <0>         0.1300
     34 H12        11.6372    7.7195   18.6750 H         1 <0>         0.4200
     35 H13        13.6461    9.2335   15.6654 H         1 <0>         0.1300
     36 H14        12.3720    8.2637   14.8607 H         1 <0>         0.1300
     37 H15        18.8076    2.2079   17.6984 H         1 <0>         0.0700
     38 H16        19.5200    3.6754   16.9847 H         1 <0>         0.0900
     39 H17        21.0248    1.6608   16.8145 H         1 <0>         0.1000
     40 H18        20.5981    2.3477   15.2274 H         1 <0>         0.0700
@<TRIPOS>BOND
     1    1    2 am
     2    1   23 1
     3    1   24 1
     4    2    3 2
     5    2    4 am
     6    4   22 1
     7    4    5 1
     8    5    6 1
     9    5   25 1
    10    5   26 1
    11    6    7 1
    12    6   27 1
    13    6   28 1
    14    7    8 1
    15    7   21 1
    16    7   29 1
    17    8    9 am
    18    8   30 1
    19    9   10 2
    20    9   11 1
    21   11   16 ar
    22   11   12 ar
    23   12   13 ar
    24   12   31 1
    25   13   20 1
    26   13   14 ar
    27   14   15 ar
    28   14   17 1
    29   15   16 ar
    30   15   32 1
    31   16   33 1
    32   17   18 am
    33   17   34 1
    34   18   19 2
    35   18   20 1
    36   20   35 1
    37   20   36 1
    38   21   22 1
    39   21   37 1
    40   21   38 1
    41   22   39 1
    42   22   40 1
##########                 Name:             smyd3_64
##########          Protonation:                 none
##########               SMILES:   C[NH+]1CCC(C#N)(NC(=O)C2=CC=C3NC(=O)CC3=C2)CC1
##########            Long Name:   NO_LONG_NAME
##########          FlexRecCode: 1
##########               Number:                  168
##########   Ligand Source File: /proj/zinc22/users/x_andlu/OGG1/revisions/docking/targets/smyd3/db2gen/split_par
##########                 Rank:                    1
##########               Setnum:                   12
##########             Matchnum:                    2
##########                Cloud:                    1
##########        Electrostatic:           -29.249428
##########                 Gist:             0.000000
##########        Van der Waals:           -29.881674
##########  Ligand Polar Desolv:            12.136845
########## Ligand Apolar Desolv:            -1.876297
##########      Internal Energy:             0.000000
##########      Receptor Energy:             0.000000
########## Receptor Desolvation:             0.000000
########## Receptor Hydrophobic:             0.000000
##########         Total Energy:           -48.870556
##########        Ligand Charge:             1.000000
##########            Arbitrary:    +999.9990
##########        Ligand Energy:             0.000000

@<TRIPOS>MOLECULE
smyd3_64      none
   41    43     0     0     0
SMALL
USER_CHARGES

@<TRIPOS>ATOM
      1 C1         20.1100   -0.7741   15.0771 C.3       1 <0>        -0.0500
      2 N1         19.1168    0.1742   15.5990 N.4       1 <0>        -0.3900
      3 H1         18.4351   -0.3252   16.1504 H         1 <0>         0.4300
      4 C2         19.7895    1.1708   16.4409 C.3       1 <0>        -0.0100
      5 C3         18.7499    2.1126   17.0523 C.3       1 <0>        -0.1500
      6 C4         17.9881    2.8217   15.9289 C.3       1 <0>         0.2800
      7 C5         18.9202    3.6541   15.1512 C.1       1 <0>         0.1700
      8 N2         19.6396    4.2966   14.5509 N.1       1 <0>        -0.3600
      9 N3         16.9401    3.6676   16.5056 N.am      1 <0>        -0.7200
     10 C6         16.1383    4.3910   15.6992 C.2       1 <0>         0.5800
     11 O1         16.2847    4.3416   14.4932 O.2       1 <0>        -0.5200
     12 C7         15.0825    5.2433   16.2802 C.ar      1 <0>        -0.1800
     13 C8         14.5215    4.9224   17.5191 C.ar      1 <0>        -0.0400
     14 C9         13.5301    5.7179   18.0635 C.ar      1 <0>        -0.1500
     15 C10        13.0863    6.8510   17.3788 C.ar      1 <0>         0.1900
     16 N4         12.1213    7.7937   17.7172 N.am      1 <0>        -0.6600
     17 C11        11.9857    8.7461   16.7797 C.2       1 <0>         0.5300
     18 O2         11.2210    9.6868   16.8139 O.2       1 <0>        -0.4800
     19 C12        12.9660    8.4245   15.6717 C.3       1 <0>        -0.1200
     20 C13        13.6537    7.1632   16.1426 C.ar      1 <0>        -0.1500
     21 C14        14.6359    6.3778   15.5943 C.ar      1 <0>         0.0000
     22 C15        17.3523    1.7707   15.0143 C.3       1 <0>        -0.1600
     23 C16        18.4436    0.8415   14.4783 C.3       1 <0>        -0.0100
     24 H2         20.8474   -0.2367   14.4811 H         1 <0>         0.1300
     25 H3         20.6082   -1.2727   15.9085 H         1 <0>         0.1300
     26 H4         19.6111   -1.5168   14.4545 H         1 <0>         0.1200
     27 H5         20.4881    1.7466   15.8339 H         1 <0>         0.1300
     28 H6         20.3334    0.6642   17.2380 H         1 <0>         0.1500
     29 H7         19.2514    2.8529   17.6756 H         1 <0>         0.1300
     30 H8         18.0508    1.5380   17.6599 H         1 <0>         0.1200
     31 H9         16.8234    3.7071   17.4677 H         1 <0>         0.4200
     32 H10        14.8622    4.0482   18.0539 H         1 <0>         0.1300
     33 H11        13.1000    5.4662   19.0216 H         1 <0>         0.1400
     34 H12        11.6049    7.7668   18.5379 H         1 <0>         0.4200
     35 H13        12.4385    8.2451   14.7348 H         1 <0>         0.1300
     36 H14        13.6882    9.2324   15.5539 H         1 <0>         0.1300
     37 H15        15.0627    6.6343   14.6360 H         1 <0>         0.1500
     38 H16        16.6242    1.1889   15.5795 H         1 <0>         0.1200
     39 H17        16.8548    2.2665   14.1808 H         1 <0>         0.1400
     40 H18        19.1710    1.4244   13.9132 H         1 <0>         0.1300
     41 H19        17.9943    0.0922   13.8266 H         1 <0>         0.1500
@<TRIPOS>BOND
     1    1    2 1
     2    1   24 1
     3    1   25 1
     4    1   26 1
     5    2    3 1
     6    2   23 1
     7    2    4 1
     8    4    5 1
     9    4   27 1
    10    4   28 1
    11    5    6 1
    12    5   29 1
    13    5   30 1
    14    6    7 1
    15    6    9 1
    16    6   22 1
    17    7    8 3
    18    9   10 am
    19    9   31 1
    20   10   11 2
    21   10   12 1
    22   12   21 ar
    23   12   13 ar
    24   13   14 ar
    25   13   32 1
    26   14   15 ar
    27   14   33 1
    28   15   20 ar
    29   15   16 1
    30   16   17 am
    31   16   34 1
    32   17   18 2
    33   17   19 1
    34   19   20 1
    35   19   35 1
    36   19   36 1
    37   20   21 ar
    38   21   37 1
    39   22   23 1
    40   22   38 1
    41   22   39 1
    42   23   40 1
    43   23   41 1
##########                 Name:             smyd3_71
##########          Protonation:                 none
##########               SMILES:   C[NH+]1CCC(CO)(NC(=O)C2=CC=C3NC(=O)CC3=C2)CC1
##########            Long Name:   NO_LONG_NAME
##########          FlexRecCode: 1
##########               Number:                  184
##########   Ligand Source File: /proj/zinc22/users/x_andlu/OGG1/revisions/docking/targets/smyd3/db2gen/split_par
##########                 Rank:                    1
##########               Setnum:                   27
##########             Matchnum:                   14
##########                Cloud:                    1
##########        Electrostatic:           -25.853806
##########                 Gist:             0.000000
##########        Van der Waals:           -30.274120
##########  Ligand Polar Desolv:             8.744680
########## Ligand Apolar Desolv:            -1.188483
##########      Internal Energy:             0.000000
##########      Receptor Energy:             0.000000
########## Receptor Desolvation:             0.000000
########## Receptor Hydrophobic:             0.000000
##########         Total Energy:           -48.571732
##########        Ligand Charge:             1.000000
##########            Arbitrary:    +999.9990
##########        Ligand Energy:             0.000000

@<TRIPOS>MOLECULE
smyd3_71      none
   44    46     0     0     0
SMALL
USER_CHARGES

@<TRIPOS>ATOM
      1 C1         16.1835   -0.8680   17.1377 C.3       1 <0>        -0.0500
      2 N1         17.0892    0.1006   16.5057 N.4       1 <0>        -0.3800
      3 H1         17.8452   -0.3931   16.0553 H         1 <0>         0.4300
      4 C2         16.3497    0.8784   15.5043 C.3       1 <0>        -0.0000
      5 C3         17.3062    1.8328   14.7860 C.3       1 <0>        -0.1600
      6 C4         17.9353    2.7823   15.8096 C.3       1 <0>         0.1800
      7 C5         18.9507    3.6884   15.1103 C.3       1 <0>         0.0600
      8 O1         20.1762    2.9768   14.9257 O.3       1 <0>        -0.5700
      9 N2         16.8888    3.6026   16.4248 N.am      1 <0>        -0.7200
     10 C6         16.1274    4.4090   15.6589 C.2       1 <0>         0.5800
     11 O2         16.3089    4.4557   14.4576 O.2       1 <0>        -0.5300
     12 C7         15.0732    5.2356   16.2787 C.ar      1 <0>        -0.1700
     13 C8         14.4685    4.8274   17.4704 C.ar      1 <0>        -0.0500
     14 C9         13.4900    5.6002   18.0503 C.ar      1 <0>        -0.1500
     15 C10        13.0851    6.7935   17.4486 C.ar      1 <0>         0.1900
     16 N3         12.1286    7.7252   17.8380 N.am      1 <0>        -0.6600
     17 C11        12.0353    8.7526   16.9776 C.2       1 <0>         0.5300
     18 O3         11.2870    9.7026   17.0689 O.2       1 <0>        -0.4800
     19 C12        13.0389    8.5014   15.8723 C.3       1 <0>        -0.1200
     20 C13        13.6877    7.1917   16.2583 C.ar      1 <0>        -0.1500
     21 C14        14.6684    6.4305   15.6742 C.ar      1 <0>         0.0000
     22 C15        18.6408    1.9578   16.8900 C.3       1 <0>        -0.1500
     23 C16        17.6350    0.9987   17.5303 C.3       1 <0>        -0.0100
     24 H2         15.3659   -0.3367   17.6248 H         1 <0>         0.1300
     25 H3         15.7801   -1.5374   16.3780 H         1 <0>         0.1300
     26 H4         16.7324   -1.4485   17.8791 H         1 <0>         0.1200
     27 H5         15.5660    1.4534   15.9976 H         1 <0>         0.1300
     28 H6         15.8999    0.2010   14.7784 H         1 <0>         0.1400
     29 H7         18.0902    1.2588   14.2920 H         1 <0>         0.1000
     30 H8         16.7550    2.4101   14.0436 H         1 <0>         0.1400
     31 H9         18.5581    3.9935   14.1404 H         1 <0>         0.0600
     32 H10        19.1322    4.5715   15.7229 H         1 <0>         0.0800
     33 H11        20.0896    2.1774   14.3886 H         1 <0>         0.3900
     34 H12        16.7440    3.5653   17.3830 H         1 <0>         0.4000
     35 H13        14.7732    3.9035   17.9396 H         1 <0>         0.1300
     36 H14        13.0299    5.2809   18.9737 H         1 <0>         0.1400
     37 H15        11.5897    7.6424   18.6404 H         1 <0>         0.4200
     38 H16        13.7798    9.3002   15.8402 H         1 <0>         0.1300
     39 H17        12.5354    8.4095   14.9098 H         1 <0>         0.1300
     40 H18        15.1260    6.7525   14.7506 H         1 <0>         0.1500
     41 H19        19.4526    1.3864   16.4397 H         1 <0>         0.1100
     42 H20        19.0437    2.6249   17.6520 H         1 <0>         0.1300
     43 H21        18.1340    0.4103   18.3002 H         1 <0>         0.1400
     44 H22        16.8239    1.5711   17.9805 H         1 <0>         0.1200
@<TRIPOS>BOND
     1    1    2 1
     2    1   24 1
     3    1   25 1
     4    1   26 1
     5    2    3 1
     6    2   23 1
     7    2    4 1
     8    4    5 1
     9    4   27 1
    10    4   28 1
    11    5    6 1
    12    5   29 1
    13    5   30 1
    14    6    7 1
    15    6    9 1
    16    6   22 1
    17    7    8 1
    18    7   31 1
    19    7   32 1
    20    8   33 1
    21    9   10 am
    22    9   34 1
    23   10   11 2
    24   10   12 1
    25   12   21 ar
    26   12   13 ar
    27   13   14 ar
    28   13   35 1
    29   14   15 ar
    30   14   36 1
    31   15   20 ar
    32   15   16 1
    33   16   17 am
    34   16   37 1
    35   17   18 2
    36   17   19 1
    37   19   20 1
    38   19   38 1
    39   19   39 1
    40   20   21 ar
    41   21   40 1
    42   22   23 1
    43   22   41 1
    44   22   42 1
    45   23   43 1
    46   23   44 1
##########                 Name:             smyd3_79
##########          Protonation:                 none
##########               SMILES:   CN1CCC(NC(=O)C2=CC=C3NC(=O)CC3=C2)C(C#N)C1
##########            Long Name:   NO_LONG_NAME
##########          FlexRecCode: 1
##########               Number:                  208
##########   Ligand Source File: /proj/zinc22/users/x_andlu/OGG1/revisions/docking/targets/smyd3/db2gen/split_par
##########                 Rank:                    1
##########               Setnum:                    3
##########             Matchnum:                   10
##########                Cloud:                    1
##########        Electrostatic:           -17.348522
##########                 Gist:             0.000000
##########        Van der Waals:           -30.620386
##########  Ligand Polar Desolv:             6.160630
########## Ligand Apolar Desolv:            -0.990357
##########      Internal Energy:             0.000000
##########      Receptor Energy:             0.000000
########## Receptor Desolvation:             0.000000
########## Receptor Hydrophobic:             0.000000
##########         Total Energy:           -42.798637
##########        Ligand Charge:             0.000000
##########            Arbitrary:    +999.9990
##########        Ligand Energy:             0.000000

@<TRIPOS>MOLECULE
smyd3_79      none
   40    42     0     0     0
SMALL
USER_CHARGES

@<TRIPOS>ATOM
      1 C1         21.5385    0.5451   15.8511 C.3       1 <0>         0.0200
      2 N1         20.4118    1.3958   16.2576 N.3       1 <0>        -0.5400
      3 C2         20.2592    2.5377   15.3470 C.3       1 <0>         0.0500
      4 C3         19.1748    3.4762   15.8809 C.3       1 <0>        -0.1200
      5 C4         17.8537    2.7105   15.9954 C.3       1 <0>         0.1500
      6 N2         16.8260    3.5874   16.5617 N.am      1 <0>        -0.7300
      7 C5         16.0565    4.3369   15.7479 C.2       1 <0>         0.5700
      8 O1         16.2151    4.2852   14.5435 O.2       1 <0>        -0.5300
      9 C6         15.0211    5.2207   16.3186 C.ar      1 <0>        -0.1600
     10 C7         14.4363    4.9154   17.5503 C.ar      1 <0>        -0.0500
     11 C8         13.4754    5.7417   18.0842 C.ar      1 <0>        -0.1500
     12 C9         13.0685    6.8865   17.3959 C.ar      1 <0>         0.1700
     13 N3         12.1271    7.8556   17.7267 N.am      1 <0>        -0.6600
     14 C10        12.0254    8.8112   16.7882 C.2       1 <0>         0.5300
     15 O2         11.2866    9.7726   16.8165 O.2       1 <0>        -0.4900
     16 C11        13.0053    8.4624   15.6881 C.3       1 <0>        -0.1200
     17 C12        13.6511    7.1819   16.1663 C.ar      1 <0>        -0.1500
     18 C13        14.6141    6.3669   15.6274 C.ar      1 <0>        -0.0000
     19 C14        18.0530    1.4986   16.9099 C.3       1 <0>         0.0000
     20 C15        16.8031    0.7240   16.9786 C.1       1 <0>         0.2000
     21 N4         15.8385    0.1263   17.0315 N.1       1 <0>        -0.4100
     22 C16        19.1698    0.6172   16.3460 C.3       1 <0>         0.0700
     23 H1         22.4456    1.1466   15.7934 H         1 <0>         0.0300
     24 H2         21.6759   -0.2503   16.5836 H         1 <0>         0.0700
     25 H3         21.3297    0.1078   14.8748 H         1 <0>         0.0700
     26 H4         21.2042    3.0764   15.2783 H         1 <0>         0.0900
     27 H5         19.9737    2.1780   14.3583 H         1 <0>         0.0400
     28 H6         19.4662    3.8470   16.8637 H         1 <0>         0.0800
     29 H7         19.0508    4.3155   15.1968 H         1 <0>         0.0800
     30 H8         17.5419    2.3734   15.0068 H         1 <0>         0.1000
     31 H9         16.6993    3.6287   17.5226 H         1 <0>         0.4000
     32 H10        14.7426    4.0295   18.0867 H         1 <0>         0.1300
     33 H11        13.0308    5.5021   19.0389 H         1 <0>         0.1400
     34 H12        11.6032    7.8427   18.5430 H         1 <0>         0.4200
     35 H13        13.7519    9.2490   15.5778 H         1 <0>         0.1300
     36 H14        12.4827    8.2982   14.7458 H         1 <0>         0.1300
     37 H15        15.0565    6.6092   14.6724 H         1 <0>         0.1500
     38 H16        18.3263    1.8377   17.9091 H         1 <0>         0.1300
     39 H17        19.3237   -0.2387   17.0031 H         1 <0>         0.0900
     40 H18        18.8894    0.2668   15.3528 H         1 <0>         0.0500
@<TRIPOS>BOND
     1    1    2 1
     2    1   23 1
     3    1   24 1
     4    1   25 1
     5    2   22 1
     6    2    3 1
     7    3    4 1
     8    3   26 1
     9    3   27 1
    10    4    5 1
    11    4   28 1
    12    4   29 1
    13    5    6 1
    14    5   19 1
    15    5   30 1
    16    6    7 am
    17    6   31 1
    18    7    8 2
    19    7    9 1
    20    9   18 ar
    21    9   10 ar
    22   10   11 ar
    23   10   32 1
    24   11   12 ar
    25   11   33 1
    26   12   17 ar
    27   12   13 1
    28   13   14 am
    29   13   34 1
    30   14   15 2
    31   14   16 1
    32   16   17 1
    33   16   35 1
    34   16   36 1
    35   17   18 ar
    36   18   37 1
    37   19   20 1
    38   19   22 1
    39   19   38 1
    40   20   21 3
    41   22   39 1
    42   22   40 1
##########                 Name:             smyd3_81
##########          Protonation:                 none
##########               SMILES:   CC1C[N@@H+](C)C(C)CC1NC(=O)C1=CC=C2NC(=O)CC2=C1
##########            Long Name:   NO_LONG_NAME
##########          FlexRecCode: 1
##########               Number:                  212
##########   Ligand Source File: /proj/zinc22/users/x_andlu/OGG1/revisions/docking/targets/smyd3/db2gen/split_par
##########                 Rank:                    1
##########               Setnum:                    1
##########             Matchnum:                   12
##########                Cloud:                    1
##########        Electrostatic:           -25.268234
##########                 Gist:             0.000000
##########        Van der Waals:           -29.273787
##########  Ligand Polar Desolv:             6.602425
########## Ligand Apolar Desolv:            -2.145302
##########      Internal Energy:             0.000000
##########      Receptor Energy:             0.000000
########## Receptor Desolvation:             0.000000
########## Receptor Hydrophobic:             0.000000
##########         Total Energy:           -50.084900
##########        Ligand Charge:             1.000000
##########            Arbitrary:    +999.9990
##########        Ligand Energy:             0.000000

@<TRIPOS>MOLECULE
smyd3_81      none
   46    48     0     0     0
SMALL
USER_CHARGES

@<TRIPOS>ATOM
      1 C1         14.9032    0.1471   15.9024 C.3       1 <0>        -0.1500
      2 C2         16.3365    0.5445   16.2615 C.3       1 <0>        -0.1200
      3 C3         17.3112   -0.4873   15.6900 C.3       1 <0>        -0.0100
      4 N1         18.6871   -0.1068   16.0315 N.4       1 <0>        -0.3800
      5 H1         18.7728   -0.0226   17.0334 H         1 <0>         0.4200
      6 C4         19.6134   -1.1398   15.5490 C.3       1 <0>        -0.0500
      7 C5         19.0193    1.1775   15.4032 C.3       1 <0>         0.0300
      8 C6         18.8172    1.0724   13.8902 C.3       1 <0>        -0.1900
      9 C7         18.1102    2.2734   15.9638 C.3       1 <0>        -0.1600
     10 C8         16.6502    1.9199   15.6657 C.3       1 <0>         0.1400
     11 N2         15.7703    2.9259   16.2657 N.am      1 <0>        -0.7300
     12 C9         15.4887    4.0607   15.5951 C.2       1 <0>         0.5700
     13 O1         15.9649    4.2494   14.4925 O.2       1 <0>        -0.5300
     14 C10        14.6022    5.0743   16.1996 C.ar      1 <0>        -0.1700
     15 C11        14.0476    4.8599   17.4641 C.ar      1 <0>        -0.0500
     16 C12        13.2256    5.8065   18.0290 C.ar      1 <0>        -0.1500
     17 C13        12.9294    6.9845   17.3402 C.ar      1 <0>         0.1900
     18 N3         12.1334    8.0676   17.6984 N.am      1 <0>        -0.6600
     19 C14        12.1036    9.0167   16.7482 C.2       1 <0>         0.5300
     20 O2         11.4920   10.0630   16.7945 O.2       1 <0>        -0.4800
     21 C15        12.9756    8.5347   15.6084 C.3       1 <0>        -0.1200
     22 C16        13.4811    7.1897   16.0783 C.ar      1 <0>        -0.1500
     23 C17        14.3065    6.2539   15.5081 C.ar      1 <0>         0.0000
     24 H2         14.6819   -0.8337   16.3235 H         1 <0>         0.0700
     25 H3         14.2094    0.8824   16.3099 H         1 <0>         0.0800
     26 H4         14.7975    0.1093   14.8182 H         1 <0>         0.0700
     27 H5         16.4430    0.5845   17.3455 H         1 <0>         0.1000
     28 H6         17.0905   -1.4678   16.1119 H         1 <0>         0.1400
     29 H7         17.2041   -0.5263   14.6059 H         1 <0>         0.1400
     30 H8         19.5202   -1.2348   14.4672 H         1 <0>         0.1200
     31 H9         20.6355   -0.8581   15.8022 H         1 <0>         0.1300
     32 H10        19.3720   -2.0929   16.0196 H         1 <0>         0.1300
     33 H11        20.0595    1.4259   15.6140 H         1 <0>         0.1400
     34 H12        19.0661    2.0254   13.4234 H         1 <0>         0.1100
     35 H13        19.4645    0.2919   13.4906 H         1 <0>         0.0800
     36 H14        17.7768    0.8252   13.6790 H         1 <0>         0.0800
     37 H15        18.3570    3.2261   15.4951 H         1 <0>         0.1200
     38 H16        18.2536    2.3492   17.0416 H         1 <0>         0.0900
     39 H17        16.4943    1.8941   14.5872 H         1 <0>         0.1100
     40 H18        15.3905    2.7754   17.1453 H         1 <0>         0.4000
     41 H19        14.2687    3.9495   18.0014 H         1 <0>         0.1300
     42 H20        12.8034    5.6360   19.0083 H         1 <0>         0.1400
     43 H21        11.6541    8.1303   18.5393 H         1 <0>         0.4200
     44 H22        13.8074    9.2205   15.4473 H         1 <0>         0.1300
     45 H23        12.3896    8.4253   14.6959 H         1 <0>         0.1300
     46 H24        14.7271    6.4275   14.5287 H         1 <0>         0.1500
@<TRIPOS>BOND
     1    1    2 1
     2    1   24 1
     3    1   25 1
     4    1   26 1
     5    2   10 1
     6    2    3 1
     7    2   27 1
     8    3    4 1
     9    3   28 1
    10    3   29 1
    11    4    5 1
    12    4    6 1
    13    4    7 1
    14    6   30 1
    15    6   31 1
    16    6   32 1
    17    7    8 1
    18    7    9 1
    19    7   33 1
    20    8   34 1
    21    8   35 1
    22    8   36 1
    23    9   10 1
    24    9   37 1
    25    9   38 1
    26   10   11 1
    27   10   39 1
    28   11   12 am
    29   11   40 1
    30   12   13 2
    31   12   14 1
    32   14   23 ar
    33   14   15 ar
    34   15   16 ar
    35   15   41 1
    36   16   17 ar
    37   16   42 1
    38   17   22 ar
    39   17   18 1
    40   18   19 am
    41   18   43 1
    42   19   20 2
    43   19   21 1
    44   21   22 1
    45   21   44 1
    46   21   45 1
    47   22   23 ar
    48   23   46 1
##########                 Name:             smyd3_82
##########          Protonation:                 none
##########               SMILES:   C[N@H+]1CCC(NC(=O)C2=CC=C3NC(=O)CC3=C2)C(C)(C)C1
##########            Long Name:   NO_LONG_NAME
##########          FlexRecCode: 1
##########               Number:                  216
##########   Ligand Source File: /proj/zinc22/users/x_andlu/OGG1/revisions/docking/targets/smyd3/db2gen/split_par
##########                 Rank:                    1
##########               Setnum:                    3
##########             Matchnum:                    1
##########                Cloud:                    1
##########        Electrostatic:           -20.197500
##########                 Gist:             0.000000
##########        Van der Waals:           -32.909092
##########  Ligand Polar Desolv:            11.110397
########## Ligand Apolar Desolv:            -2.597769
##########      Internal Energy:             0.000000
##########      Receptor Energy:             0.000000
########## Receptor Desolvation:             0.000000
########## Receptor Hydrophobic:             0.000000
##########         Total Energy:           -44.593964
##########        Ligand Charge:             1.000000
##########            Arbitrary:    +999.9990
##########        Ligand Energy:             0.000000

@<TRIPOS>MOLECULE
smyd3_82      none
   46    48     0     0     0
SMALL
USER_CHARGES

@<TRIPOS>ATOM
      1 C1         14.5468   -1.2245   16.3248 C.3       1 <0>        -0.0500
      2 N1         15.7132   -0.3642   16.0850 N.4       1 <0>        -0.3900
      3 H1         16.4828   -0.9281   15.7567 H         1 <0>         0.4200
      4 C2         15.3771    0.6412   15.0696 C.3       1 <0>        -0.0100
      5 C3         16.6124    1.4885   14.7569 C.3       1 <0>        -0.1600
      6 C4         17.0810    2.1890   16.0356 C.3       1 <0>         0.1400
      7 N2         16.0373    3.1043   16.5035 N.am      1 <0>        -0.7400
      8 C5         16.0251    4.3844   16.0819 C.2       1 <0>         0.5700
      9 O1         16.8803    4.7796   15.3133 O.2       1 <0>        -0.5200
     10 C6         14.9733    5.3066   16.5530 C.ar      1 <0>        -0.1700
     11 C7         14.3561    5.0975   17.7890 C.ar      1 <0>        -0.0500
     12 C8         13.3763    5.9569   18.2278 C.ar      1 <0>        -0.1500
     13 C9         12.9861    7.0421   17.4405 C.ar      1 <0>         0.1900
     14 N3         12.0306    8.0274   17.6658 N.am      1 <0>        -0.6600
     15 C10        11.9540    8.9067   16.6530 C.2       1 <0>         0.5300
     16 O2         11.2115    9.8632   16.5842 O.2       1 <0>        -0.4800
     17 C11        12.9783    8.4875   15.6197 C.3       1 <0>        -0.1200
     18 C12        13.6093    7.2484   16.2126 C.ar      1 <0>        -0.1500
     19 C13        14.5876    6.3967   15.7656 C.ar      1 <0>         0.0000
     20 C14        17.3576    1.1348   17.1115 C.3       1 <0>        -0.0900
     21 C15        18.4971    0.2230   16.6524 C.3       1 <0>        -0.1600
     22 C16        17.7524    1.8284   18.4168 C.3       1 <0>        -0.1500
     23 C17        16.0947    0.3006   17.3369 C.3       1 <0>        -0.0000
     24 H2         13.7142   -0.6171   16.6795 H         1 <0>         0.1200
     25 H3         14.2648   -1.7211   15.3965 H         1 <0>         0.1300
     26 H4         14.7964   -1.9735   17.0763 H         1 <0>         0.1300
     27 H5         15.0408    0.1412   14.1613 H         1 <0>         0.1300
     28 H6         14.5814    1.2844   15.4451 H         1 <0>         0.1300
     29 H7         16.3604    2.2355   14.0042 H         1 <0>         0.1200
     30 H8         17.4089    0.8462   14.3810 H         1 <0>         0.1000
     31 H9         17.9932    2.7499   15.8319 H         1 <0>         0.1200
     32 H10        15.3550    2.7892   17.1167 H         1 <0>         0.4000
     33 H11        14.6493    4.2579   18.4017 H         1 <0>         0.1300
     34 H12        12.9032    5.7889   19.1840 H         1 <0>         0.1400
     35 H13        11.4814    8.0743   18.4639 H         1 <0>         0.4200
     36 H14        13.7278    9.2651   15.4725 H         1 <0>         0.1300
     37 H15        12.4819    8.2507   14.6787 H         1 <0>         0.1300
     38 H16        15.0588    6.5674   14.8088 H         1 <0>         0.1500
     39 H17        18.6934   -0.5270   17.4186 H         1 <0>         0.0900
     40 H18        18.2146   -0.2720   15.7233 H         1 <0>         0.0800
     41 H19        19.3953    0.8185   16.4883 H         1 <0>         0.0600
     42 H20        17.9490    1.0777   19.1821 H         1 <0>         0.0700
     43 H21        18.6498    2.4252   18.2541 H         1 <0>         0.0700
     44 H22        16.9394    2.4767   18.7441 H         1 <0>         0.0800
     45 H23        16.2880   -0.4509   18.1023 H         1 <0>         0.1400
     46 H24        15.2836    0.9511   17.6641 H         1 <0>         0.1200
@<TRIPOS>BOND
     1    1    2 1
     2    1   24 1
     3    1   25 1
     4    1   26 1
     5    2    3 1
     6    2   23 1
     7    2    4 1
     8    4    5 1
     9    4   27 1
    10    4   28 1
    11    5    6 1
    12    5   29 1
    13    5   30 1
    14    6    7 1
    15    6   20 1
    16    6   31 1
    17    7    8 am
    18    7   32 1
    19    8    9 2
    20    8   10 1
    21   10   19 ar
    22   10   11 ar
    23   11   12 ar
    24   11   33 1
    25   12   13 ar
    26   12   34 1
    27   13   18 ar
    28   13   14 1
    29   14   15 am
    30   14   35 1
    31   15   16 2
    32   15   17 1
    33   17   18 1
    34   17   36 1
    35   17   37 1
    36   18   19 ar
    37   19   38 1
    38   20   21 1
    39   20   22 1
    40   20   23 1
    41   21   39 1
    42   21   40 1
    43   21   41 1
    44   22   42 1
    45   22   43 1
    46   22   44 1
    47   23   45 1
    48   23   46 1
##########                 Name:             smyd3_84
##########          Protonation:                 none
##########               SMILES:   CC[N@@H+]1CCC(NC(=O)C2=CC=C3NC(=O)CC3=C2)C(C)C1
##########            Long Name:   NO_LONG_NAME
##########          FlexRecCode: 1
##########               Number:                  226
##########   Ligand Source File: /proj/zinc22/users/x_andlu/OGG1/revisions/docking/targets/smyd3/db2gen/split_par
##########                 Rank:                    1
##########               Setnum:                   11
##########             Matchnum:                   10
##########                Cloud:                    1
##########        Electrostatic:           -24.670765
##########                 Gist:             0.000000
##########        Van der Waals:           -30.392447
##########  Ligand Polar Desolv:             9.000198
########## Ligand Apolar Desolv:            -2.430783
##########      Internal Energy:             0.000000
##########      Receptor Energy:             0.000000
########## Receptor Desolvation:             0.000000
########## Receptor Hydrophobic:             0.000000
##########         Total Energy:           -48.493793
##########        Ligand Charge:             1.000000
##########            Arbitrary:    +999.9990
##########        Ligand Energy:             0.000000

@<TRIPOS>MOLECULE
smyd3_84      none
   46    48     0     0     0
SMALL
USER_CHARGES

@<TRIPOS>ATOM
      1 C1         15.6804   -1.7264   16.1156 C.3       1 <0>        -0.1900
      2 C2         16.2353   -0.7738   17.1765 C.3       1 <0>        -0.0100
      3 N1         17.1339    0.1983   16.5399 N.4       1 <0>        -0.3800
      4 H1         17.8956   -0.2918   16.0952 H         1 <0>         0.4200
      5 C3         17.6685    1.1075   17.5600 C.3       1 <0>        -0.0100
      6 C4         18.6679    2.0709   16.9161 C.3       1 <0>        -0.1600
      7 C5         17.9584    2.8820   15.8281 C.3       1 <0>         0.1400
      8 N2         16.9031    3.6972   16.4347 N.am      1 <0>        -0.7400
      9 C6         16.1395    4.4948   15.6619 C.2       1 <0>         0.5700
     10 O1         16.3264    4.5378   14.4613 O.2       1 <0>        -0.5200
     11 C7         15.0763    5.3162   16.2731 C.ar      1 <0>        -0.1700
     12 C8         14.4689    4.9086   17.4636 C.ar      1 <0>        -0.0500
     13 C9         13.4819    5.6766   18.0356 C.ar      1 <0>        -0.1500
     14 C10        13.0712    6.8644   17.4269 C.ar      1 <0>         0.1900
     15 N3         12.1061    7.7906   17.8078 N.am      1 <0>        -0.6600
     16 C11        12.0094    8.8137   16.9426 C.2       1 <0>         0.5300
     17 O2         11.2537    9.7586   17.0262 O.2       1 <0>        -0.4800
     18 C12        13.0200    8.5653   15.8431 C.3       1 <0>        -0.1200
     19 C13        13.6766    7.2620   16.2378 C.ar      1 <0>        -0.1500
     20 C14        14.6656    6.5055   15.6616 C.ar      1 <0>         0.0000
     21 C15        17.3405    1.9201   14.8093 C.3       1 <0>        -0.1200
     22 C16        18.4499    1.1194   14.1244 C.3       1 <0>        -0.1700
     23 C17        16.3902    0.9624   15.5311 C.3       1 <0>        -0.0100
     24 H2         15.0136   -2.4476   16.5881 H         1 <0>         0.0800
     25 H3         15.1282   -1.1563   15.3684 H         1 <0>         0.0800
     26 H4         16.5040   -2.2539   15.6345 H         1 <0>         0.1100
     27 H5         16.7875   -1.3440   17.9236 H         1 <0>         0.1300
     28 H6         15.4117   -0.2464   17.6577 H         1 <0>         0.1300
     29 H7         18.1704    0.5286   18.3351 H         1 <0>         0.1400
     30 H8         16.8511    1.6757   18.0040 H         1 <0>         0.1300
     31 H9         19.4859    1.5035   16.4720 H         1 <0>         0.1000
     32 H10        19.0627    2.7466   17.6747 H         1 <0>         0.1200
     33 H11        18.6786    3.5294   15.3280 H         1 <0>         0.1200
     34 H12        16.7540    3.6629   17.3925 H         1 <0>         0.4000
     35 H13        14.7780    3.9889   17.9381 H         1 <0>         0.1300
     36 H14        13.0198    5.3578   18.9582 H         1 <0>         0.1400
     37 H15        11.5639    7.7073   18.6078 H         1 <0>         0.4200
     38 H16        13.7553    9.3693   15.8112 H         1 <0>         0.1300
     39 H17        12.5199    8.4650   14.8798 H         1 <0>         0.1300
     40 H18        15.1254    6.8270   14.7388 H         1 <0>         0.1500
     41 H19        16.7864    2.4881   14.0619 H         1 <0>         0.1300
     42 H20        18.0096    0.4349   13.3995 H         1 <0>         0.0800
     43 H21        19.1287    1.8024   13.6136 H         1 <0>         0.0900
     44 H22        19.0020    0.5504   14.8725 H         1 <0>         0.0600
     45 H23        15.6001    1.5338   16.0183 H         1 <0>         0.1200
     46 H24        15.9488    0.2758   14.8086 H         1 <0>         0.1400
@<TRIPOS>BOND
     1    1    2 1
     2    1   24 1
     3    1   25 1
     4    1   26 1
     5    2    3 1
     6    2   27 1
     7    2   28 1
     8    3    4 1
     9    3   23 1
    10    3    5 1
    11    5    6 1
    12    5   29 1
    13    5   30 1
    14    6    7 1
    15    6   31 1
    16    6   32 1
    17    7    8 1
    18    7   21 1
    19    7   33 1
    20    8    9 am
    21    8   34 1
    22    9   10 2
    23    9   11 1
    24   11   20 ar
    25   11   12 ar
    26   12   13 ar
    27   12   35 1
    28   13   14 ar
    29   13   36 1
    30   14   19 ar
    31   14   15 1
    32   15   16 am
    33   15   37 1
    34   16   17 2
    35   16   18 1
    36   18   19 1
    37   18   38 1
    38   18   39 1
    39   19   20 ar
    40   20   40 1
    41   21   22 1
    42   21   23 1
    43   21   41 1
    44   22   42 1
    45   22   43 1
    46   22   44 1
    47   23   45 1
    48   23   46 1
##########                 Name:             smyd3_94
##########          Protonation:                 none
##########               SMILES:   C[NH+]1CC2CCC(C1)C2NC(=O)C1=CC=C2NC(=O)CC2=C1
##########            Long Name:   NO_LONG_NAME
##########          FlexRecCode: 1
##########               Number:                  248
##########   Ligand Source File: /proj/zinc22/users/x_andlu/OGG1/revisions/docking/targets/smyd3/db2gen/split_par
##########                 Rank:                    1
##########               Setnum:                    9
##########             Matchnum:                   18
##########                Cloud:                    1
##########        Electrostatic:           -23.432970
##########                 Gist:             0.000000
##########        Van der Waals:           -31.072010
##########  Ligand Polar Desolv:             9.632180
########## Ligand Apolar Desolv:            -2.371122
##########      Internal Energy:             0.000000
##########      Receptor Energy:             0.000000
########## Receptor Desolvation:             0.000000
########## Receptor Hydrophobic:             0.000000
##########         Total Energy:           -47.243923
##########        Ligand Charge:             1.000000
##########            Arbitrary:    +999.9990
##########        Ligand Energy:             0.000000

@<TRIPOS>MOLECULE
smyd3_94      none
   44    47     0     0     0
SMALL
USER_CHARGES

@<TRIPOS>ATOM
      1 C1         15.6800   -0.2397   17.8712 C.3       1 <0>        -0.0500
      2 N1         16.7414    0.3352   17.0339 N.4       1 <0>        -0.3800
      3 H1         17.3479   -0.4049   16.7136 H         1 <0>         0.4200
      4 C2         16.1342    0.9967   15.8733 C.3       1 <0>        -0.0100
      5 C3         17.2450    1.6192   15.0078 C.3       1 <0>        -0.1100
      6 C4         18.3753    0.5686   14.8915 C.3       1 <0>        -0.1400
      7 C5         19.2602    0.7537   16.1382 C.3       1 <0>        -0.1500
      8 C6         18.6219    1.9066   16.9489 C.3       1 <0>        -0.1200
      9 C7         17.5248    1.2869   17.8336 C.3       1 <0>        -0.0100
     10 C8         17.8877    2.7435   15.8657 C.3       1 <0>         0.1400
     11 N2         16.8626    3.6010   16.4658 N.am      1 <0>        -0.7400
     12 C9         16.0584    4.3422   15.6782 C.2       1 <0>         0.5700
     13 O1         16.1837    4.2992   14.4695 O.2       1 <0>        -0.5100
     14 C10        15.0298    5.2109   16.2830 C.ar      1 <0>        -0.1800
     15 C11        14.4875    4.8950   17.5314 C.ar      1 <0>        -0.0500
     16 C12        13.5297    5.7049   18.0952 C.ar      1 <0>        -0.1500
     17 C13        13.0907    6.8489   17.4255 C.ar      1 <0>         0.1900
     18 N3         12.1484    7.8055   17.7886 N.am      1 <0>        -0.6600
     19 C14        12.0094    8.7651   16.8589 C.2       1 <0>         0.5300
     20 O2         11.2613    9.7180   16.9138 O.2       1 <0>        -0.4800
     21 C15        12.9616    8.4336   15.7295 C.3       1 <0>        -0.1200
     22 C16        13.6348    7.1578   16.1816 C.ar      1 <0>        -0.1500
     23 C17        14.5950    6.3594   15.6131 C.ar      1 <0>         0.0000
     24 H2         15.0215    0.5557   18.2202 H         1 <0>         0.1300
     25 H3         15.1045   -0.9575   17.2864 H         1 <0>         0.1300
     26 H4         16.1265   -0.7441   18.7282 H         1 <0>         0.1200
     27 H5         15.4559    1.7791   16.2135 H         1 <0>         0.1200
     28 H6         15.5804    0.2654   15.2844 H         1 <0>         0.1400
     29 H7         16.8923    1.9731   14.0391 H         1 <0>         0.1400
     30 H8         18.9588    0.7446   13.9877 H         1 <0>         0.1000
     31 H9         17.9547   -0.4369   14.8759 H         1 <0>         0.0800
     32 H10        20.2748    1.0201   15.8418 H         1 <0>         0.1000
     33 H11        19.2698   -0.1613   16.7306 H         1 <0>         0.0800
     34 H12        19.3544    2.4870   17.5098 H         1 <0>         0.1400
     35 H13        17.9849    0.7663   18.6734 H         1 <0>         0.1300
     36 H14        16.8698    2.0742   18.2067 H         1 <0>         0.1300
     37 H15        18.5931    3.3311   15.2783 H         1 <0>         0.1200
     38 H16        16.7626    3.6352   17.4301 H         1 <0>         0.4000
     39 H17        14.8218    4.0119   18.0556 H         1 <0>         0.1300
     40 H18        13.1153    5.4552   19.0607 H         1 <0>         0.1400
     41 H19        11.6477    7.7819   18.6191 H         1 <0>         0.4200
     42 H20        13.6959    9.2291   15.6028 H         1 <0>         0.1300
     43 H21        12.4142    8.2687   14.8014 H         1 <0>         0.1300
     44 H22        15.0110    6.6149   14.6497 H         1 <0>         0.1500
@<TRIPOS>BOND
     1    1    2 1
     2    1   24 1
     3    1   25 1
     4    1   26 1
     5    2    3 1
     6    2    9 1
     7    2    4 1
     8    4    5 1
     9    4   27 1
    10    4   28 1
    11    5   10 1
    12    5    6 1
    13    5   29 1
    14    6    7 1
    15    6   30 1
    16    6   31 1
    17    7    8 1
    18    7   32 1
    19    7   33 1
    20    8    9 1
    21    8   10 1
    22    8   34 1
    23    9   35 1
    24    9   36 1
    25   10   11 1
    26   10   37 1
    27   11   12 am
    28   11   38 1
    29   12   13 2
    30   12   14 1
    31   14   23 ar
    32   14   15 ar
    33   15   16 ar
    34   15   39 1
    35   16   17 ar
    36   16   40 1
    37   17   22 ar
    38   17   18 1
    39   18   19 am
    40   18   41 1
    41   19   20 2
    42   19   21 1
    43   21   22 1
    44   21   42 1
    45   21   43 1
    46   22   23 ar
    47   23   44 1
##########                 Name:            smyd3_106
##########          Protonation:                 none
##########               SMILES:   CC[N@H+]1CCC(NC(=O)C2=CC=C3NC(=O)CC3=C2)CC1C
##########            Long Name:   NO_LONG_NAME
##########          FlexRecCode: 1
##########               Number:                  274
##########   Ligand Source File: /proj/zinc22/users/x_andlu/OGG1/revisions/docking/targets/smyd3/db2gen/split_par
##########                 Rank:                    1
##########               Setnum:                    9
##########             Matchnum:                   14
##########                Cloud:                    1
##########        Electrostatic:           -23.178431
##########                 Gist:             0.000000
##########        Van der Waals:           -31.921017
##########  Ligand Polar Desolv:             8.395290
########## Ligand Apolar Desolv:            -2.520209
##########      Internal Energy:             0.000000
##########      Receptor Energy:             0.000000
########## Receptor Desolvation:             0.000000
########## Receptor Hydrophobic:             0.000000
##########         Total Energy:           -49.224369
##########        Ligand Charge:             1.000000
##########            Arbitrary:    +999.9990
##########        Ligand Energy:             0.000000

@<TRIPOS>MOLECULE
smyd3_106      none
   46    48     0     0     0
SMALL
USER_CHARGES

@<TRIPOS>ATOM
      1 C1         14.6055   -1.9366   16.2287 C.3       1 <0>        -0.1900
      2 C2         15.2739   -1.0389   17.2719 C.3       1 <0>        -0.0200
      3 N1         16.2751   -0.1873   16.6158 N.4       1 <0>        -0.3800
      4 H1         16.9723   -0.7682   16.1749 H         1 <0>         0.4200
      5 C3         15.6184    0.6419   15.5980 C.3       1 <0>        -0.0100
      6 C4         16.6682    1.4718   14.8559 C.3       1 <0>        -0.1600
      7 C5         17.3993    2.3721   15.8560 C.3       1 <0>         0.1300
      8 N2         16.4489    3.3133   16.4537 N.am      1 <0>        -0.7400
      9 C6         15.7781    4.1818   15.6713 C.2       1 <0>         0.5700
     10 O1         15.9617    4.1841   14.4694 O.2       1 <0>        -0.5200
     11 C7         14.8208    5.1301   16.2736 C.ar      1 <0>        -0.1700
     12 C8         14.1774    4.8142   17.4730 C.ar      1 <0>        -0.0500
     13 C9         13.2891    5.6999   18.0364 C.ar      1 <0>        -0.1500
     14 C10        13.0144    6.9172   17.4100 C.ar      1 <0>         0.1900
     15 N3         12.1641    7.9543   17.7791 N.am      1 <0>        -0.6600
     16 C11        12.1808    8.9679   16.8977 C.2       1 <0>         0.5300
     17 O2         11.5393    9.9946   16.9686 O.2       1 <0>        -0.4800
     18 C12        13.1502    8.5875   15.7988 C.3       1 <0>        -0.1200
     19 C13        13.6548    7.2238   16.2122 C.ar      1 <0>        -0.1500
     20 C14        14.5466    6.3493   15.6446 C.ar      1 <0>         0.0000
     21 C15        18.0176    1.5019   16.9540 C.3       1 <0>        -0.1500
     22 C16        16.9178    0.6707   17.6183 C.3       1 <0>         0.0200
     23 C17        17.5315   -0.2004   18.7162 C.3       1 <0>        -0.1800
     24 H2         13.8627   -2.5685   16.7155 H         1 <0>         0.1100
     25 H3         14.1184   -1.3176   15.4753 H         1 <0>         0.0800
     26 H4         15.3593   -2.5632   15.7519 H         1 <0>         0.0800
     27 H5         15.7611   -1.6579   18.0253 H         1 <0>         0.1300
     28 H6         14.5201   -0.4123   17.7486 H         1 <0>         0.1300
     29 H7         15.0959   -0.0002   14.8889 H         1 <0>         0.1400
     30 H8         14.9027    1.3083   16.0792 H         1 <0>         0.1300
     31 H9         16.1784    2.0881   14.1019 H         1 <0>         0.1200
     32 H10        17.3845    0.8068   14.3735 H         1 <0>         0.1000
     33 H11        18.1861    2.9251   15.3428 H         1 <0>         0.1200
     34 H12        16.3026    3.3114   17.4126 H         1 <0>         0.4000
     35 H13        14.3816    3.8728   17.9614 H         1 <0>         0.1300
     36 H14        12.7988    5.4512   18.9659 H         1 <0>         0.1400
     37 H15        11.6204    7.9465   18.5825 H         1 <0>         0.4200
     38 H16        13.9728    9.3011   15.7509 H         1 <0>         0.1300
     39 H17        12.6365    8.5301   14.8390 H         1 <0>         0.1300
     40 H18        15.0352    6.6011   14.7150 H         1 <0>         0.1500
     41 H19        18.4924    2.1396   17.6997 H         1 <0>         0.1200
     42 H20        18.7618    0.8371   16.5157 H         1 <0>         0.1100
     43 H21        16.1744    1.3366   18.0565 H         1 <0>         0.1300
     44 H22        18.0090    0.4364   19.4609 H         1 <0>         0.0800
     45 H23        16.7484   -0.7911   19.1916 H         1 <0>         0.1100
     46 H24        18.2742   -0.8671   18.2783 H         1 <0>         0.0800
@<TRIPOS>BOND
     1    1    2 1
     2    1   24 1
     3    1   25 1
     4    1   26 1
     5    2    3 1
     6    2   27 1
     7    2   28 1
     8    3    4 1
     9    3   22 1
    10    3    5 1
    11    5    6 1
    12    5   29 1
    13    5   30 1
    14    6    7 1
    15    6   31 1
    16    6   32 1
    17    7    8 1
    18    7   21 1
    19    7   33 1
    20    8    9 am
    21    8   34 1
    22    9   10 2
    23    9   11 1
    24   11   20 ar
    25   11   12 ar
    26   12   13 ar
    27   12   35 1
    28   13   14 ar
    29   13   36 1
    30   14   19 ar
    31   14   15 1
    32   15   16 am
    33   15   37 1
    34   16   17 2
    35   16   18 1
    36   18   19 1
    37   18   38 1
    38   18   39 1
    39   19   20 ar
    40   20   40 1
    41   21   22 1
    42   21   41 1
    43   21   42 1
    44   22   23 1
    45   22   43 1
    46   23   44 1
    47   23   45 1
    48   23   46 1
##########                 Name:            smyd3_112
##########          Protonation:                 none
##########               SMILES:   C[N@@H+]1CCC(NC(=O)C2=CC=C3NC(=O)CC3=C2)CC12CC2
##########            Long Name:   NO_LONG_NAME
##########          FlexRecCode: 1
##########               Number:                  290
##########   Ligand Source File: /proj/zinc22/users/x_andlu/OGG1/revisions/docking/targets/smyd3/db2gen/split_par
##########                 Rank:                    1
##########               Setnum:                   10
##########             Matchnum:                   14
##########                Cloud:                    1
##########        Electrostatic:           -31.787556
##########                 Gist:             0.000000
##########        Van der Waals:           -26.416012
##########  Ligand Polar Desolv:             9.244190
########## Ligand Apolar Desolv:            -2.016223
##########      Internal Energy:             0.000000
##########      Receptor Energy:             0.000000
########## Receptor Desolvation:             0.000000
########## Receptor Hydrophobic:             0.000000
##########         Total Energy:           -50.975601
##########        Ligand Charge:             1.000000
##########            Arbitrary:    +999.9990
##########        Ligand Energy:             0.000000

@<TRIPOS>MOLECULE
smyd3_112      none
   44    47     0     0     0
SMALL
USER_CHARGES

@<TRIPOS>ATOM
      1 C1         21.3106    2.1457   16.2746 C.3       1 <0>        -0.0500
      2 N1         20.6460    1.6529   15.0607 N.4       1 <0>        -0.3500
      3 H1         21.2904    1.0856   14.5306 H         1 <0>         0.4300
      4 C2         20.2098    2.7932   14.2434 C.3       1 <0>         0.0000
      5 C3         19.2250    3.6513   15.0387 C.3       1 <0>        -0.1600
      6 C4         17.9726    2.8314   15.3600 C.3       1 <0>         0.1400
      7 N2         17.0332    3.6522   16.1281 N.am      1 <0>        -0.7300
      8 C5         16.1048    4.3908   15.4888 C.2       1 <0>         0.5700
      9 O1         16.0468    4.3760   14.2744 O.2       1 <0>        -0.5300
     10 C6         15.1584    5.2177   16.2628 C.ar      1 <0>        -0.1700
     11 C7         14.8146    4.8581   17.5685 C.ar      1 <0>        -0.0500
     12 C8         13.9365    5.6313   18.2911 C.ar      1 <0>        -0.1500
     13 C9         13.3731    6.7759   17.7234 C.ar      1 <0>         0.1900
     14 N3         12.4723    7.6973   18.2470 N.am      1 <0>        -0.6600
     15 C10        12.1709    8.6716   17.3728 C.2       1 <0>         0.5300
     16 O2         11.4155    9.6013   17.5627 O.2       1 <0>        -0.4800
     17 C11        12.9502    8.3909   16.1056 C.3       1 <0>        -0.1200
     18 C12        13.7158    7.1259   16.4200 C.ar      1 <0>        -0.1500
     19 C13        14.5949    6.3641   15.6925 C.ar      1 <0>         0.0000
     20 C14        18.3764    1.6049   16.1860 C.3       1 <0>        -0.1000
     21 C15        19.4757    0.8470   15.4351 C.3       1 <0>        -0.0500
     22 C16        19.7095   -0.6169   15.8080 C.3       1 <0>        -0.1400
     23 C17        19.0420   -0.2629   14.4773 C.3       1 <0>        -0.1500
     24 H2         20.6142    2.7584   16.8468 H         1 <0>         0.1200
     25 H3         21.6330    1.2994   16.8813 H         1 <0>         0.1200
     26 H4         22.1777    2.7447   15.9964 H         1 <0>         0.1300
     27 H5         19.7234    2.4263   13.3395 H         1 <0>         0.1300
     28 H6         21.0765    3.3949   13.9700 H         1 <0>         0.1400
     29 H7         18.9458    4.5243   14.4488 H         1 <0>         0.1200
     30 H8         19.6942    3.9761   15.9673 H         1 <0>         0.0900
     31 H9         17.5012    2.5071   14.4323 H         1 <0>         0.1100
     32 H10        17.0796    3.6639   17.0970 H         1 <0>         0.4000
     33 H11        15.2430    3.9720   18.0132 H         1 <0>         0.1300
     34 H12        13.6780    5.3496   19.3011 H         1 <0>         0.1400
     35 H13        12.1034    7.6425   19.1425 H         1 <0>         0.4200
     36 H14        13.6368    9.2096   15.8900 H         1 <0>         0.1300
     37 H15        12.2739    8.2296   15.2662 H         1 <0>         0.1300
     38 H16        14.8506    6.6483   14.6824 H         1 <0>         0.1500
     39 H17        18.7521    1.9260   17.1576 H         1 <0>         0.1000
     40 H18        17.5120    0.9551   16.3224 H         1 <0>         0.1200
     41 H19        20.7341   -0.9872   15.7745 H         1 <0>         0.1200
     42 H20        19.0802   -1.0439   16.5888 H         1 <0>         0.1300
     43 H21        17.9736   -0.4573   14.3826 H         1 <0>         0.1300
     44 H22        19.6276   -0.4005   13.5682 H         1 <0>         0.1200
@<TRIPOS>BOND
     1    1    2 1
     2    1   24 1
     3    1   25 1
     4    1   26 1
     5    2    3 1
     6    2   21 1
     7    2    4 1
     8    4    5 1
     9    4   27 1
    10    4   28 1
    11    5    6 1
    12    5   29 1
    13    5   30 1
    14    6    7 1
    15    6   20 1
    16    6   31 1
    17    7    8 am
    18    7   32 1
    19    8    9 2
    20    8   10 1
    21   10   19 ar
    22   10   11 ar
    23   11   12 ar
    24   11   33 1
    25   12   13 ar
    26   12   34 1
    27   13   18 ar
    28   13   14 1
    29   14   15 am
    30   14   35 1
    31   15   16 2
    32   15   17 1
    33   17   18 1
    34   17   36 1
    35   17   37 1
    36   18   19 ar
    37   19   38 1
    38   20   21 1
    39   20   39 1
    40   20   40 1
    41   21   23 1
    42   21   22 1
    43   22   23 1
    44   22   41 1
    45   22   42 1
    46   23   43 1
    47   23   44 1
##########                 Name:            smyd3_115
##########          Protonation:                 none
##########               SMILES:   O=C1CC2=C(C=CC(C(=O)NC3CC[N@H+]4CCCC4C3)=C2)N1
##########            Long Name:   NO_LONG_NAME
##########          FlexRecCode: 1
##########               Number:                  295
##########   Ligand Source File: /proj/zinc22/users/x_andlu/OGG1/revisions/docking/targets/smyd3/db2gen/split_par
##########                 Rank:                    1
##########               Setnum:                    5
##########             Matchnum:                    4
##########                Cloud:                    1
##########        Electrostatic:           -24.265591
##########                 Gist:             0.000000
##########        Van der Waals:           -28.731176
##########  Ligand Polar Desolv:             8.080040
########## Ligand Apolar Desolv:            -2.364082
##########      Internal Energy:             0.000000
##########      Receptor Energy:             0.000000
########## Receptor Desolvation:             0.000000
########## Receptor Hydrophobic:             0.000000
##########         Total Energy:           -47.280807
##########        Ligand Charge:             1.000000
##########            Arbitrary:    +999.9990
##########        Ligand Energy:             0.000000

@<TRIPOS>MOLECULE
smyd3_115      none
   44    47     0     0     0
SMALL
USER_CHARGES

@<TRIPOS>ATOM
      1 O1         11.6911    9.9955   17.3696 O.2       1 <0>        -0.4800
      2 C1         12.3304    8.9822   17.1826 C.2       1 <0>         0.5300
      3 C2         13.3795    8.7655   16.1128 C.3       1 <0>        -0.1200
      4 C3         13.8432    7.3443   16.3381 C.ar      1 <0>        -0.1500
      5 C4         13.1110    6.8615   17.4190 C.ar      1 <0>         0.1900
      6 C5         13.3298    5.5544   17.8599 C.ar      1 <0>        -0.1500
      7 C6         14.2543    4.7551   17.2304 C.ar      1 <0>        -0.0500
      8 C7         14.9905    5.2479   16.1492 C.ar      1 <0>        -0.1700
      9 C8         15.9869    4.3917   15.4765 C.2       1 <0>         0.5700
     10 O2         16.2592    4.5800   14.3066 O.2       1 <0>        -0.5200
     11 N1         16.5949    3.4014   16.1590 N.am      1 <0>        -0.7400
     12 C9         17.5840    2.5515   15.4913 C.3       1 <0>         0.1300
     13 C10        18.6190    2.0848   16.5143 C.3       1 <0>        -0.1600
     14 C11        17.9826    1.1327   17.5381 C.3       1 <0>        -0.0000
     15 N2         17.4152    0.0076   16.8071 N.4       1 <0>        -0.3900
     16 H1         18.1163   -0.4005   16.2074 H         1 <0>         0.4300
     17 C12        16.7941   -1.0341   17.6404 C.3       1 <0>        -0.0100
     18 C13        15.8658   -1.7847   16.6483 C.3       1 <0>        -0.1500
     19 C14        15.5671   -0.7571   15.5265 C.3       1 <0>        -0.1400
     20 C15        16.2831    0.5163   15.9872 C.3       1 <0>         0.0300
     21 C16        16.8711    1.3469   14.8562 C.3       1 <0>        -0.1500
     22 C17        14.7720    6.5562   15.7059 C.ar      1 <0>         0.0000
     23 N3         12.2403    7.8409   17.8855 N.am      1 <0>        -0.6600
     24 H2         14.2072    9.4627   16.2424 H         1 <0>         0.1300
     25 H3         12.9410    8.8716   15.1205 H         1 <0>         0.1300
     26 H4         12.7677    5.1686   18.6975 H         1 <0>         0.1400
     27 H5         14.4149    3.7441   17.5746 H         1 <0>         0.1300
     28 H6         16.3776    3.2512   17.0923 H         1 <0>         0.4000
     29 H7         18.0834    3.1261   14.7111 H         1 <0>         0.1200
     30 H8         19.4268    1.5673   15.9968 H         1 <0>         0.1000
     31 H9         19.0251    2.9520   17.0350 H         1 <0>         0.1200
     32 H10        17.1958    1.6518   18.0856 H         1 <0>         0.1300
     33 H11        18.7429    0.7759   18.2328 H         1 <0>         0.1300
     34 H12        17.5519   -1.7074   18.0413 H         1 <0>         0.1400
     35 H13        16.2149   -0.5857   18.4475 H         1 <0>         0.1300
     36 H14        16.3754   -2.6565   16.2378 H         1 <0>         0.1000
     37 H15        14.9425   -2.0832   17.1447 H         1 <0>         0.1100
     38 H16        14.4942   -0.5832   15.4437 H         1 <0>         0.1100
     39 H17        15.9736   -1.1008   14.5755 H         1 <0>         0.1000
     40 H18        15.6207    1.1293   16.5984 H         1 <0>         0.1300
     41 H19        16.0743    1.6928   14.1979 H         1 <0>         0.1200
     42 H20        17.5860    0.7497   14.2900 H         1 <0>         0.1100
     43 H21        15.3321    6.9450   14.8683 H         1 <0>         0.1500
     44 H22        11.6368    7.7143   18.6342 H         1 <0>         0.4200
@<TRIPOS>BOND
     1    1    2 2
     2    2   23 am
     3    2    3 1
     4    3    4 1
     5    3   24 1
     6    3   25 1
     7    4   22 ar
     8    4    5 ar
     9    5    6 ar
    10    5   23 1
    11    6    7 ar
    12    6   26 1
    13    7    8 ar
    14    7   27 1
    15    8    9 1
    16    8   22 ar
    17    9   10 2
    18    9   11 am
    19   11   12 1
    20   11   28 1
    21   12   21 1
    22   12   13 1
    23   12   29 1
    24   13   14 1
    25   13   30 1
    26   13   31 1
    27   14   15 1
    28   14   32 1
    29   14   33 1
    30   15   16 1
    31   15   20 1
    32   15   17 1
    33   17   18 1
    34   17   34 1
    35   17   35 1
    36   18   19 1
    37   18   36 1
    38   18   37 1
    39   19   20 1
    40   19   38 1
    41   19   39 1
    42   20   21 1
    43   20   40 1
    44   21   41 1
    45   21   42 1
    46   22   43 1
    47   23   44 1
##########                 Name:            smyd3_117
##########          Protonation:                 none
##########               SMILES:   CC(=O)N1CCC(NC(=O)C2=CC=C3NC(=O)CC3=C2)CC1
##########            Long Name:   NO_LONG_NAME
##########          FlexRecCode: 1
##########               Number:                  301
##########   Ligand Source File: /proj/zinc22/users/x_andlu/OGG1/revisions/docking/targets/smyd3/db2gen/split_par
##########                 Rank:                    1
##########               Setnum:                    7
##########             Matchnum:                    9
##########                Cloud:                    1
##########        Electrostatic:           -18.870054
##########                 Gist:             0.000000
##########        Van der Waals:           -31.137465
##########  Ligand Polar Desolv:             7.514911
########## Ligand Apolar Desolv:            -1.436579
##########      Internal Energy:             0.000000
##########      Receptor Energy:             0.000000
########## Receptor Desolvation:             0.000000
########## Receptor Hydrophobic:             0.000000
##########         Total Energy:           -43.929184
##########        Ligand Charge:             0.000000
##########            Arbitrary:    +999.9990
##########        Ligand Energy:             0.000000

@<TRIPOS>MOLECULE
smyd3_117      none
   41    43     0     0     0
SMALL
USER_CHARGES

@<TRIPOS>ATOM
      1 C1         19.8598   -1.9688   15.2644 C.3       1 <0>        -0.1800
      2 C2         20.0027   -0.7432   16.1292 C.2       1 <0>         0.5100
      3 O1         20.5976   -0.8112   17.1839 O.2       1 <0>        -0.5400
      4 N1         19.4692    0.4286   15.7308 N.am      1 <0>        -0.6200
      5 C3         20.0822    1.7036   16.1275 C.3       1 <0>         0.1100
      6 C4         19.0132    2.5809   16.7863 C.3       1 <0>        -0.1400
      7 C5         17.8213    2.7250   15.8371 C.3       1 <0>         0.1500
      8 N2         16.8109    3.5906   16.4503 N.am      1 <0>        -0.7200
      9 C6         16.0092    4.3457   15.6735 C.2       1 <0>         0.5700
     10 O2         16.1245    4.3084   14.4637 O.2       1 <0>        -0.5300
     11 C7         14.9913    5.2179   16.2912 C.ar      1 <0>        -0.1600
     12 C8         14.4526    4.8957   17.5398 C.ar      1 <0>        -0.0500
     13 C9         13.5042    5.7085   18.1151 C.ar      1 <0>        -0.1500
     14 C10        13.0723    6.8624   17.4581 C.ar      1 <0>         0.1700
     15 N3         12.1399    7.8236   17.8342 N.am      1 <0>        -0.6600
     16 C11        12.0051    8.7930   16.9141 C.2       1 <0>         0.5300
     17 O3         11.2657    9.7520   16.9815 O.2       1 <0>        -0.4900
     18 C12        12.9491    8.4637   15.7773 C.3       1 <0>        -0.1200
     19 C13        13.6163    7.1789   16.2127 C.ar      1 <0>        -0.1500
     20 C14        14.5593    6.3734   15.6315 C.ar      1 <0>        -0.0000
     21 C15        17.2145    1.3467   15.5649 C.3       1 <0>        -0.1400
     22 C16        18.2632    0.4554   14.8921 C.3       1 <0>         0.1100
     23 H1         19.2996   -1.7152   14.3644 H         1 <0>         0.0900
     24 H2         20.8484   -2.3344   14.9860 H         1 <0>         0.1000
     25 H3         19.3284   -2.7436   15.8169 H         1 <0>         0.0800
     26 H4         20.4774    2.2089   15.2462 H         1 <0>         0.0800
     27 H5         20.8901    1.5184   16.8355 H         1 <0>         0.1000
     28 H6         19.4303    3.5653   16.9984 H         1 <0>         0.0900
     29 H7         18.6837    2.1174   17.7162 H         1 <0>         0.0800
     30 H8         18.1560    3.1663   14.8984 H         1 <0>         0.0900
     31 H9         16.7189    3.6203   17.4156 H         1 <0>         0.4000
     32 H10        14.7818    4.0052   18.0543 H         1 <0>         0.1300
     33 H11        13.0918    5.4533   19.0801 H         1 <0>         0.1400
     34 H12        11.6434    7.7971   18.6671 H         1 <0>         0.4200
     35 H13        12.3942    8.3116   14.8516 H         1 <0>         0.1300
     36 H14        13.6882    9.2551   15.6530 H         1 <0>         0.1300
     37 H15        14.9691    6.6311   14.6661 H         1 <0>         0.1400
     38 H16        16.9023    0.8943   16.5062 H         1 <0>         0.0700
     39 H17        16.3514    1.4525   14.9077 H         1 <0>         0.0800
     40 H18        18.5100    0.8589   13.9100 H         1 <0>         0.0700
     41 H19        17.8710   -0.5557   14.7836 H         1 <0>         0.1000
@<TRIPOS>BOND
     1    1    2 1
     2    1   23 1
     3    1   24 1
     4    1   25 1
     5    2    3 2
     6    2    4 am
     7    4   22 1
     8    4    5 1
     9    5    6 1
    10    5   26 1
    11    5   27 1
    12    6    7 1
    13    6   28 1
    14    6   29 1
    15    7    8 1
    16    7   21 1
    17    7   30 1
    18    8    9 am
    19    8   31 1
    20    9   10 2
    21    9   11 1
    22   11   20 ar
    23   11   12 ar
    24   12   13 ar
    25   12   32 1
    26   13   14 ar
    27   13   33 1
    28   14   19 ar
    29   14   15 1
    30   15   16 am
    31   15   34 1
    32   16   17 2
    33   16   18 1
    34   18   19 1
    35   18   35 1
    36   18   36 1
    37   19   20 ar
    38   20   37 1
    39   21   22 1
    40   21   38 1
    41   21   39 1
    42   22   40 1
    43   22   41 1
##########                 Name:            smyd3_119
##########          Protonation:                 none
##########               SMILES:   CCON1CCC(NC(=O)C2=CC=C3NC(=O)CC3=C2)CC1
##########            Long Name:   NO_LONG_NAME
##########          FlexRecCode: 1
##########               Number:                  306
##########   Ligand Source File: /proj/zinc22/users/x_andlu/OGG1/revisions/docking/targets/smyd3/db2gen/split_par
##########                 Rank:                    1
##########               Setnum:                   21
##########             Matchnum:                    1
##########                Cloud:                    1
##########        Electrostatic:           -18.723131
##########                 Gist:             0.000000
##########        Van der Waals:           -30.453814
##########  Ligand Polar Desolv:             5.801155
########## Ligand Apolar Desolv:            -1.282412
##########      Internal Energy:             0.000000
##########      Receptor Energy:             0.000000
########## Receptor Desolvation:             0.000000
########## Receptor Hydrophobic:             0.000000
##########         Total Energy:           -44.658203
##########        Ligand Charge:             0.000000
##########            Arbitrary:    +999.9990
##########        Ligand Energy:             0.000000

@<TRIPOS>MOLECULE
smyd3_119      none
   43    45     0     0     0
SMALL
USER_CHARGES

@<TRIPOS>ATOM
      1 C1         21.0147   -2.3156   14.1286 C.3       1 <0>        -0.1500
      2 C2         20.1210   -1.1200   14.4649 C.3       1 <0>         0.0300
      3 O1         19.4331   -1.3700   15.6922 O.3       1 <0>        -0.2300
      4 N1         18.5460   -0.2838   16.1090 N.3       1 <0>        -0.3300
      5 C3         19.3093    0.9364   16.4003 C.3       1 <0>         0.0100
      6 C4         18.3712    2.0027   16.9704 C.3       1 <0>        -0.1200
      7 C5         17.2664    2.3002   15.9528 C.3       1 <0>         0.1400
      8 N2         16.3317    3.2782   16.5150 N.am      1 <0>        -0.7200
      9 C6         15.6755    4.1285   15.7009 C.2       1 <0>         0.5700
     10 O2         15.8593    4.0839   14.4998 O.2       1 <0>        -0.5300
     11 C7         14.7339    5.1139   16.2672 C.ar      1 <0>        -0.1600
     12 C8         14.0850    4.8526   17.4768 C.ar      1 <0>        -0.0500
     13 C9         13.2118    5.7732   18.0071 C.ar      1 <0>        -0.1500
     14 C10        12.9576    6.9713   17.3367 C.ar      1 <0>         0.1700
     15 N3         12.1253    8.0356   17.6675 N.am      1 <0>        -0.6600
     16 C11        12.1594    9.0159   16.7497 C.2       1 <0>         0.5300
     17 O3         11.5359   10.0557   16.7832 O.2       1 <0>        -0.4900
     18 C12        13.1219    8.5793   15.6658 C.3       1 <0>        -0.1200
     19 C13        13.6031    7.2231   16.1289 C.ar      1 <0>        -0.1500
     20 C14        14.4802    6.3137   15.5941 C.ar      1 <0>        -0.0000
     21 C15        16.5179    1.0039   15.6303 C.3       1 <0>        -0.1200
     22 C16        17.5098   -0.0334   15.0991 C.3       1 <0>         0.0300
     23 H1         21.5395   -2.1249   13.1924 H         1 <0>         0.0600
     24 H2         21.7402   -2.4632   14.9284 H         1 <0>         0.0700
     25 H3         20.4008   -3.2103   14.0251 H         1 <0>         0.0700
     26 H4         20.7349   -0.2253   14.5684 H         1 <0>         0.0600
     27 H5         19.3954   -0.9723   13.6651 H         1 <0>         0.0500
     28 H6         20.0891    0.7119   17.1283 H         1 <0>         0.1000
     29 H7         19.7656    1.3073   15.4825 H         1 <0>         0.0500
     30 H8         18.9351    2.9134   17.1719 H         1 <0>         0.0800
     31 H9         17.9252    1.6386   17.8959 H         1 <0>         0.0800
     32 H10        17.7091    2.7016   15.0412 H         1 <0>         0.0900
     33 H11        16.1851    3.3138   17.4733 H         1 <0>         0.4000
     34 H12        14.2731    3.9263   17.9993 H         1 <0>         0.1400
     35 H13        12.7171    5.5666   18.9446 H         1 <0>         0.1400
     36 H14        11.5815    8.0663   18.4701 H         1 <0>         0.4200
     37 H15        13.9566    9.2765   15.5924 H         1 <0>         0.1300
     38 H16        12.6073    8.4959   14.7086 H         1 <0>         0.1300
     39 H17        14.9728    6.5232   14.6561 H         1 <0>         0.1400
     40 H18        15.7578    1.2010   14.8744 H         1 <0>         0.0900
     41 H19        16.0428    0.6234   16.5345 H         1 <0>         0.0800
     42 H20        17.9745    0.3419   14.1874 H         1 <0>         0.0500
     43 H21        16.9823   -0.9623   14.8821 H         1 <0>         0.1000
@<TRIPOS>BOND
     1    1    2 1
     2    1   23 1
     3    1   24 1
     4    1   25 1
     5    2    3 1
     6    2   26 1
     7    2   27 1
     8    3    4 1
     9    4   22 1
    10    4    5 1
    11    5    6 1
    12    5   28 1
    13    5   29 1
    14    6    7 1
    15    6   30 1
    16    6   31 1
    17    7    8 1
    18    7   21 1
    19    7   32 1
    20    8    9 am
    21    8   33 1
    22    9   10 2
    23    9   11 1
    24   11   20 ar
    25   11   12 ar
    26   12   13 ar
    27   12   34 1
    28   13   14 ar
    29   13   35 1
    30   14   19 ar
    31   14   15 1
    32   15   16 am
    33   15   36 1
    34   16   17 2
    35   16   18 1
    36   18   19 1
    37   18   37 1
    38   18   38 1
    39   19   20 ar
    40   20   39 1
    41   21   22 1
    42   21   40 1
    43   21   41 1
    44   22   42 1
    45   22   43 1
##########                 Name:            smyd3_120
##########          Protonation:                 none
##########               SMILES:   CC(C)[NH+]1CCC(NC(=O)C2=CC=C3NC(=O)CC3=C2)CC1
##########            Long Name:   NO_LONG_NAME
##########          FlexRecCode: 1
##########               Number:                  308
##########   Ligand Source File: /proj/zinc22/users/x_andlu/OGG1/revisions/docking/targets/smyd3/db2gen/split_par
##########                 Rank:                    1
##########               Setnum:                    6
##########             Matchnum:                    5
##########                Cloud:                    1
##########        Electrostatic:           -20.975306
##########                 Gist:             0.000000
##########        Van der Waals:           -31.227585
##########  Ligand Polar Desolv:             6.946328
########## Ligand Apolar Desolv:            -2.155145
##########      Internal Energy:             0.000000
##########      Receptor Energy:             0.000000
########## Receptor Desolvation:             0.000000
########## Receptor Hydrophobic:             0.000000
##########         Total Energy:           -47.411705
##########        Ligand Charge:             1.000000
##########            Arbitrary:    +999.9990
##########        Ligand Energy:             0.000000

@<TRIPOS>MOLECULE
smyd3_120      none
   46    48     0     0     0
SMALL
USER_CHARGES

@<TRIPOS>ATOM
      1 C1         21.3591   -0.7211   16.4753 C.3       1 <0>        -0.1800
      2 C2         20.2271   -0.7305   15.4459 C.3       1 <0>         0.0200
      3 C3         19.6861   -2.1538   15.2959 C.3       1 <0>        -0.1800
      4 N1         19.1481    0.1587   15.8964 N.4       1 <0>        -0.3800
      5 H1         18.7980   -0.1646   16.7858 H         1 <0>         0.4200
      6 C4         19.6697    1.5227   16.0441 C.3       1 <0>        -0.0100
      7 C5         18.5708    2.4367   16.5905 C.3       1 <0>        -0.1600
      8 C6         17.3888    2.4430   15.6169 C.3       1 <0>         0.1400
      9 N2         16.3027    3.2558   16.1702 N.am      1 <0>        -0.7300
     10 C7         16.2402    4.5738   15.8957 C.2       1 <0>         0.5700
     11 O1         17.0851    5.0883   15.1889 O.2       1 <0>        -0.5300
     12 C8         15.1459    5.3926   16.4531 C.ar      1 <0>        -0.1700
     13 C9         14.5267    5.0195   17.6489 C.ar      1 <0>        -0.0500
     14 C10        13.5067    5.7821   18.1676 C.ar      1 <0>        -0.1500
     15 C11        13.0812    6.9351   17.5049 C.ar      1 <0>         0.1900
     16 N3         12.0862    7.8513   17.8292 N.am      1 <0>        -0.6600
     17 C12        11.9840    8.8376   16.9231 C.2       1 <0>         0.5300
     18 O2         11.2044    9.7661   16.9540 O.2       1 <0>        -0.4800
     19 C13        13.0239    8.5722   15.8553 C.3       1 <0>        -0.1200
     20 C14        13.7058    7.3027   16.3123 C.ar      1 <0>        -0.1500
     21 C15        14.7208    6.5475   15.7879 C.ar      1 <0>         0.0000
     22 C16        16.9004    1.0061   15.4129 C.3       1 <0>        -0.1600
     23 C17        18.0612    0.1451   14.9102 C.3       1 <0>        -0.0100
     24 H2         21.7445    0.2929   16.5822 H         1 <0>         0.0800
     25 H3         20.9792   -1.0685   17.4361 H         1 <0>         0.1100
     26 H4         22.1597   -1.3808   16.1411 H         1 <0>         0.0800
     27 H5         20.6070   -0.3831   14.4851 H         1 <0>         0.1400
     28 H6         18.8797   -2.1604   14.5626 H         1 <0>         0.0800
     29 H7         20.4867   -2.8135   14.9617 H         1 <0>         0.1100
     30 H8         19.3063   -2.5012   16.2567 H         1 <0>         0.0800
     31 H9         19.9995    1.8922   15.0731 H         1 <0>         0.1300
     32 H10        20.5128    1.5156   16.7351 H         1 <0>         0.1400
     33 H11        18.9596    3.4493   16.6978 H         1 <0>         0.1200
     34 H12        18.2403    2.0689   17.5619 H         1 <0>         0.0900
     35 H13        17.7060    2.8607   14.6612 H         1 <0>         0.1100
     36 H14        15.6287    2.8453   16.7342 H         1 <0>         0.4100
     37 H15        14.8502    4.1291   18.1675 H         1 <0>         0.1300
     38 H16        13.0321    5.4874   19.0919 H         1 <0>         0.1400
     39 H17        11.5289    7.7853   18.6204 H         1 <0>         0.4200
     40 H18        12.5474    8.4226   14.8864 H         1 <0>         0.1300
     41 H19        13.7389    9.3935   15.8056 H         1 <0>         0.1300
     42 H20        15.1927    6.8443   14.8628 H         1 <0>         0.1500
     43 H21        16.5354    0.6079   16.3597 H         1 <0>         0.0900
     44 H22        16.0950    0.9962   14.6785 H         1 <0>         0.1200
     45 H23        18.4253    0.5440   13.9633 H         1 <0>         0.1300
     46 H24        17.7164   -0.8785   14.7641 H         1 <0>         0.1400
@<TRIPOS>BOND
     1    1    2 1
     2    1   24 1
     3    1   25 1
     4    1   26 1
     5    2    3 1
     6    2    4 1
     7    2   27 1
     8    3   28 1
     9    3   29 1
    10    3   30 1
    11    4    5 1
    12    4   23 1
    13    4    6 1
    14    6    7 1
    15    6   31 1
    16    6   32 1
    17    7    8 1
    18    7   33 1
    19    7   34 1
    20    8    9 1
    21    8   22 1
    22    8   35 1
    23    9   10 am
    24    9   36 1
    25   10   11 2
    26   10   12 1
    27   12   21 ar
    28   12   13 ar
    29   13   14 ar
    30   13   37 1
    31   14   15 ar
    32   14   38 1
    33   15   20 ar
    34   15   16 1
    35   16   17 am
    36   16   39 1
    37   17   18 2
    38   17   19 1
    39   19   20 1
    40   19   40 1
    41   19   41 1
    42   20   21 ar
    43   21   42 1
    44   22   23 1
    45   22   43 1
    46   22   44 1
    47   23   45 1
    48   23   46 1
##########                 Name:            smyd3_121
##########          Protonation:                 none
##########               SMILES:   O=C1CC2=C(C=CC(C(=O)NC3CC[NH+](C4CC4)CC3)=C2)N1
##########            Long Name:   NO_LONG_NAME
##########          FlexRecCode: 1
##########               Number:                  309
##########   Ligand Source File: /proj/zinc22/users/x_andlu/OGG1/revisions/docking/targets/smyd3/db2gen/split_par
##########                 Rank:                    1
##########               Setnum:                    6
##########             Matchnum:                    2
##########                Cloud:                    1
##########        Electrostatic:           -28.334152
##########                 Gist:             0.000000
##########        Van der Waals:           -29.252687
##########  Ligand Polar Desolv:             8.058389
########## Ligand Apolar Desolv:            -2.175045
##########      Internal Energy:             0.000000
##########      Receptor Energy:             0.000000
########## Receptor Desolvation:             0.000000
########## Receptor Hydrophobic:             0.000000
##########         Total Energy:           -51.703495
##########        Ligand Charge:             1.000000
##########            Arbitrary:    +999.9990
##########        Ligand Energy:             0.000000

@<TRIPOS>MOLECULE
smyd3_121      none
   44    47     0     0     0
SMALL
USER_CHARGES

@<TRIPOS>ATOM
      1 O1         11.2705    9.7997   17.0928 O.2       1 <0>        -0.4800
      2 C1         11.9964    8.8323   17.0030 C.2       1 <0>         0.5300
      3 C2         12.9017    8.4927   15.8381 C.3       1 <0>        -0.1200
      4 C3         13.5641    7.1993   16.2549 C.ar      1 <0>        -0.1500
      5 C4         13.0576    6.8894   17.5140 C.ar      1 <0>         0.1900
      6 C5         13.4964    5.7300   18.1575 C.ar      1 <0>        -0.1500
      7 C6         14.4125    4.9037   17.5509 C.ar      1 <0>        -0.0500
      8 C7         14.9215    5.2238   16.2890 C.ar      1 <0>        -0.1700
      9 C8         15.9100    4.3401   15.6402 C.2       1 <0>         0.5700
     10 O2         15.9882    4.3027   14.4276 O.2       1 <0>        -0.5300
     11 N1         16.7257    3.5748   16.3922 N.am      1 <0>        -0.7300
     12 C9         17.7068    2.6980   15.7483 C.3       1 <0>         0.1400
     13 C10        17.0785    1.3241   15.4967 C.3       1 <0>        -0.1600
     14 C11        18.1322    0.3892   14.8992 C.3       1 <0>        -0.0100
     15 N2         19.2579    0.2527   15.8313 N.4       1 <0>        -0.3500
     16 H1         18.9185   -0.0841   16.7198 H         1 <0>         0.4200
     17 C12        20.2294   -0.7051   15.2866 C.3       1 <0>        -0.0800
     18 C13        20.0698   -2.1748   15.6808 C.3       1 <0>        -0.1600
     19 C14        21.2156   -1.3452   16.2656 C.3       1 <0>        -0.1500
     20 C15        19.9093    1.5546   16.0196 C.3       1 <0>         0.0000
     21 C16        18.9245    2.5337   16.6622 C.3       1 <0>        -0.1600
     22 C17        14.4833    6.3842   15.6433 C.ar      1 <0>         0.0000
     23 N3         12.1482    7.8609   17.9185 N.am      1 <0>        -0.6600
     24 H2         13.6473    9.2744   15.6930 H         1 <0>         0.1300
     25 H3         12.3173    8.3473   14.9295 H         1 <0>         0.1300
     26 H4         13.1104    5.4787   19.1343 H         1 <0>         0.1400
     27 H5         14.7435    4.0068   18.0529 H         1 <0>         0.1300
     28 H6         16.6632    3.6047   17.3597 H         1 <0>         0.4100
     29 H7         18.0191    3.1349   14.7997 H         1 <0>         0.1100
     30 H8         16.7188    0.9104   16.4388 H         1 <0>         0.0900
     31 H9         16.2451    1.4268   14.8019 H         1 <0>         0.1200
     32 H10        18.4900    0.8030   13.9564 H         1 <0>         0.1400
     33 H11        17.6883   -0.5901   14.7204 H         1 <0>         0.1300
     34 H12        20.5875   -0.4902   14.2799 H         1 <0>         0.1800
     35 H13        19.2439   -2.4311   16.3444 H         1 <0>         0.1200
     36 H14        20.3234   -2.9268   14.9336 H         1 <0>         0.1300
     37 H15        22.2225   -1.5517   15.9029 H         1 <0>         0.1300
     38 H16        21.1438   -1.0552   17.3140 H         1 <0>         0.1200
     39 H17        20.2292    1.9434   15.0529 H         1 <0>         0.1300
     40 H18        20.7774    1.4349   16.6679 H         1 <0>         0.1400
     41 H19        19.4095    3.5001   16.7995 H         1 <0>         0.1200
     42 H20        18.6042    2.1457   17.6291 H         1 <0>         0.1000
     43 H21        14.8668    6.6380   14.6660 H         1 <0>         0.1500
     44 H22        11.6766    7.8395   18.7659 H         1 <0>         0.4200
@<TRIPOS>BOND
     1    1    2 2
     2    2   23 am
     3    2    3 1
     4    3    4 1
     5    3   24 1
     6    3   25 1
     7    4   22 ar
     8    4    5 ar
     9    5    6 ar
    10    5   23 1
    11    6    7 ar
    12    6   26 1
    13    7    8 ar
    14    7   27 1
    15    8    9 1
    16    8   22 ar
    17    9   10 2
    18    9   11 am
    19   11   12 1
    20   11   28 1
    21   12   21 1
    22   12   13 1
    23   12   29 1
    24   13   14 1
    25   13   30 1
    26   13   31 1
    27   14   15 1
    28   14   32 1
    29   14   33 1
    30   15   16 1
    31   15   17 1
    32   15   20 1
    33   17   19 1
    34   17   18 1
    35   17   34 1
    36   18   19 1
    37   18   35 1
    38   18   36 1
    39   19   37 1
    40   19   38 1
    41   20   21 1
    42   20   39 1
    43   20   40 1
    44   21   41 1
    45   21   42 1
    46   22   43 1
    47   23   44 1
##########                 Name:            smyd3_122
##########          Protonation:                 none
##########               SMILES:   C#CC[NH+]1CCC(NC(=O)C2=CC=C3NC(=O)CC3=C2)CC1
##########            Long Name:   NO_LONG_NAME
##########          FlexRecCode: 1
##########               Number:                  315
##########   Ligand Source File: /proj/zinc22/users/x_andlu/OGG1/revisions/docking/targets/smyd3/db2gen/split_par
##########                 Rank:                    1
##########               Setnum:                   11
##########             Matchnum:                   13
##########                Cloud:                    1
##########        Electrostatic:           -29.156910
##########                 Gist:             0.000000
##########        Van der Waals:           -30.674816
##########  Ligand Polar Desolv:             9.777248
########## Ligand Apolar Desolv:            -2.259571
##########      Internal Energy:             0.000000
##########      Receptor Energy:             0.000000
########## Receptor Desolvation:             0.000000
########## Receptor Hydrophobic:             0.000000
##########         Total Energy:           -52.314049
##########        Ligand Charge:             1.000000
##########            Arbitrary:    +999.9990
##########        Ligand Energy:             0.000000

@<TRIPOS>MOLECULE
smyd3_122      none
   42    44     0     0     0
SMALL
USER_CHARGES

@<TRIPOS>ATOM
      1 C1         21.6358   -1.8220   17.2656 C.1       1 <0>        -0.0600
      2 C2         21.0578   -1.3194   16.3759 C.1       1 <0>        -0.3000
      3 C3         20.3332   -0.6893   15.2603 C.3       1 <0>         0.1300
      4 N1         19.3279    0.2406   15.7923 N.4       1 <0>        -0.3900
      5 H1         18.8916   -0.1682   16.6051 H         1 <0>         0.4300
      6 C4         19.9800    1.5000   16.1701 C.3       1 <0>        -0.0000
      7 C5         18.9518    2.4425   16.7996 C.3       1 <0>        -0.1600
      8 C6         17.8393    2.7256   15.7861 C.3       1 <0>         0.1400
      9 N2         16.8128    3.5660   16.4076 N.am      1 <0>        -0.7300
     10 C7         16.0942    4.4210   15.6531 C.2       1 <0>         0.5700
     11 O1         16.2979    4.4948   14.4568 O.2       1 <0>        -0.5300
     12 C8         15.0599    5.2675   16.2793 C.ar      1 <0>        -0.1700
     13 C9         14.4204    4.8481   17.4487 C.ar      1 <0>        -0.0500
     14 C10        13.4562    5.6368   18.0314 C.ar      1 <0>        -0.1500
     15 C11        13.1083    6.8626   17.4606 C.ar      1 <0>         0.1900
     16 N3         12.1790    7.8170   17.8608 N.am      1 <0>        -0.6600
     17 C12        12.1415    8.8735   17.0320 C.2       1 <0>         0.5300
     18 O2         11.4271    9.8477   17.1389 O.2       1 <0>        -0.4800
     19 C13        13.1577    8.6195   15.9389 C.3       1 <0>        -0.1200
     20 C14        13.7529    7.2759   16.2938 C.ar      1 <0>        -0.1500
     21 C15        14.7126    6.4955   15.7060 C.ar      1 <0>         0.0000
     22 C16        17.2159    1.3989   15.3430 C.3       1 <0>        -0.1600
     23 C17        18.3085    0.4952   14.7675 C.3       1 <0>        -0.0000
     24 H2         22.1526   -2.2715   18.0614 H         1 <0>         0.2400
     25 H3         19.8388   -1.4587   14.6674 H         1 <0>         0.1500
     26 H4         21.0369   -0.1430   14.6323 H         1 <0>         0.1500
     27 H5         20.4061    1.9684   15.2829 H         1 <0>         0.1400
     28 H6         20.7736    1.2965   16.8889 H         1 <0>         0.1400
     29 H7         19.4376    3.3777   17.0778 H         1 <0>         0.1200
     30 H8         18.5251    1.9757   17.6874 H         1 <0>         0.1000
     31 H9         18.2570    3.2405   14.9208 H         1 <0>         0.1100
     32 H10        16.6502    3.5071   17.3620 H         1 <0>         0.4100
     33 H11        14.6840    3.9013   17.8963 H         1 <0>         0.1300
     34 H12        12.9654    5.3060   18.9348 H         1 <0>         0.1400
     35 H13        11.6209    7.7294   18.6493 H         1 <0>         0.4200
     36 H14        12.6692    8.5761   14.9655 H         1 <0>         0.1300
     37 H15        13.9268    9.3919   15.9453 H         1 <0>         0.1300
     38 H16        15.2007    6.8286   14.8020 H         1 <0>         0.1500
     39 H17        16.7534    0.9099   16.2003 H         1 <0>         0.0900
     40 H18        16.4609    1.5883   14.5801 H         1 <0>         0.1200
     41 H19        18.7702    0.9851   13.9102 H         1 <0>         0.1300
     42 H20        17.8676   -0.4500   14.4512 H         1 <0>         0.1300
@<TRIPOS>BOND
     1    1    2 3
     2    1   24 1
     3    2    3 1
     4    3    4 1
     5    3   25 1
     6    3   26 1
     7    4    5 1
     8    4   23 1
     9    4    6 1
    10    6    7 1
    11    6   27 1
    12    6   28 1
    13    7    8 1
    14    7   29 1
    15    7   30 1
    16    8    9 1
    17    8   22 1
    18    8   31 1
    19    9   10 am
    20    9   32 1
    21   10   11 2
    22   10   12 1
    23   12   21 ar
    24   12   13 ar
    25   13   14 ar
    26   13   33 1
    27   14   15 ar
    28   14   34 1
    29   15   20 ar
    30   15   16 1
    31   16   17 am
    32   16   35 1
    33   17   18 2
    34   17   19 1
    35   19   20 1
    36   19   36 1
    37   19   37 1
    38   20   21 ar
    39   21   38 1
    40   22   23 1
    41   22   39 1
    42   22   40 1
    43   23   41 1
    44   23   42 1
##########                 Name:            smyd3_123
##########          Protonation:                 none
##########               SMILES:   N#CCN1CCC(NC(=O)C2=CC3=C(C=C2)NC(=O)C3)CC1
##########            Long Name:   NO_LONG_NAME
##########          FlexRecCode: 1
##########               Number:                  316
##########   Ligand Source File: /proj/zinc22/users/x_andlu/OGG1/revisions/docking/targets/smyd3/db2gen/split_par
##########                 Rank:                    1
##########               Setnum:                    3
##########             Matchnum:                   16
##########                Cloud:                    1
##########        Electrostatic:           -21.298483
##########                 Gist:             0.000000
##########        Van der Waals:           -30.233688
##########  Ligand Polar Desolv:             7.223029
########## Ligand Apolar Desolv:            -1.135882
##########      Internal Energy:             0.000000
##########      Receptor Energy:             0.000000
########## Receptor Desolvation:             0.000000
########## Receptor Hydrophobic:             0.000000
##########         Total Energy:           -45.445026
##########        Ligand Charge:             0.000000
##########            Arbitrary:    +999.9990
##########        Ligand Energy:             0.000000

@<TRIPOS>MOLECULE
smyd3_123      none
   40    42     0     0     0
SMALL
USER_CHARGES

@<TRIPOS>ATOM
      1 N1         21.3822   -1.6842   17.4859 N.1       1 <0>        -0.4200
      2 C1         20.7474   -1.3290   16.6133 C.1       1 <0>         0.2100
      3 C2         19.9248   -0.8688   15.4826 C.3       1 <0>         0.1500
      4 N2         18.9881    0.1634   15.9468 N.3       1 <0>        -0.5400
      5 C3         19.6761    1.4443   16.1522 C.3       1 <0>         0.0600
      6 C4         18.7056    2.4526   16.7714 C.3       1 <0>        -0.1200
      7 C5         17.5070    2.6398   15.8372 C.3       1 <0>         0.1400
      8 N3         16.5464    3.5597   16.4515 N.am      1 <0>        -0.7200
      9 C6         15.7670    4.3380   15.6747 C.2       1 <0>         0.5700
     10 O1         15.8611    4.2766   14.4641 O.2       1 <0>        -0.5300
     11 C7         14.7994    5.2648   16.2936 C.ar      1 <0>        -0.1600
     12 C8         14.4089    6.4276   15.6216 C.ar      1 <0>        -0.0000
     13 C9         13.5120    7.2839   16.2038 C.ar      1 <0>        -0.1500
     14 C10        12.9746    7.0121   17.4623 C.ar      1 <0>         0.1700
     15 C11        13.3657    5.8503   18.1319 C.ar      1 <0>        -0.1500
     16 C12        14.2668    4.9869   17.5557 C.ar      1 <0>        -0.0500
     17 N4         12.0919    8.0198   17.8367 N.am      1 <0>        -0.6600
     18 C13        11.9854    8.9795   16.9028 C.2       1 <0>         0.5300
     19 O2         11.2901    9.9712   16.9652 O.2       1 <0>        -0.4900
     20 C14        12.8955    8.5900   15.7572 C.3       1 <0>        -0.1200
     21 C15        16.8367    1.2838   15.5996 C.3       1 <0>        -0.1300
     22 C16        17.8619    0.3089   15.0157 C.3       1 <0>         0.0500
     23 H1         19.3650   -1.7102   15.0743 H         1 <0>         0.0800
     24 H2         20.5704   -0.4524   14.7094 H         1 <0>         0.1200
     25 H3         20.0315    1.8235   15.1941 H         1 <0>         0.0500
     26 H4         20.5237    1.2979   16.8217 H         1 <0>         0.0900
     27 H5         19.2121    3.4079   16.9093 H         1 <0>         0.0800
     28 H6         18.3605    2.0803   17.7360 H         1 <0>         0.0800
     29 H7         17.8468    3.0498   14.8861 H         1 <0>         0.0900
     30 H8         16.4713    3.6088   17.4174 H         1 <0>         0.4000
     31 H9         14.8145    6.6514   14.6460 H         1 <0>         0.1400
     32 H10        12.9576    5.6291   19.1071 H         1 <0>         0.1400
     33 H11        14.5642    4.0907   18.0799 H         1 <0>         0.1400
     34 H12        11.6083    8.0287   18.6775 H         1 <0>         0.4200
     35 H13        12.3195    8.4479   14.8428 H         1 <0>         0.1300
     36 H14        13.6669    9.3455   15.6082 H         1 <0>         0.1300
     37 H15        16.4613    0.8927   16.5452 H         1 <0>         0.0800
     38 H16        16.0088    1.4045   14.9008 H         1 <0>         0.0800
     39 H17        18.2257    0.6934   14.0629 H         1 <0>         0.0500
     40 H18        17.3917   -0.6620   14.8598 H         1 <0>         0.0800
@<TRIPOS>BOND
     1    1    2 3
     2    2    3 1
     3    3    4 1
     4    3   23 1
     5    3   24 1
     6    4   22 1
     7    4    5 1
     8    5    6 1
     9    5   25 1
    10    5   26 1
    11    6    7 1
    12    6   27 1
    13    6   28 1
    14    7    8 1
    15    7   21 1
    16    7   29 1
    17    8    9 am
    18    8   30 1
    19    9   10 2
    20    9   11 1
    21   11   16 ar
    22   11   12 ar
    23   12   13 ar
    24   12   31 1
    25   13   20 1
    26   13   14 ar
    27   14   15 ar
    28   14   17 1
    29   15   16 ar
    30   15   32 1
    31   16   33 1
    32   17   18 am
    33   17   34 1
    34   18   19 2
    35   18   20 1
    36   20   35 1
    37   20   36 1
    38   21   22 1
    39   21   37 1
    40   21   38 1
    41   22   39 1
    42   22   40 1
##########                 Name:            smyd3_128
##########          Protonation:                 none
##########               SMILES:   CCC[NH+]1CCC(NC(=O)C2=CC=C3NC(=O)CC3=C2)CC1
##########            Long Name:   NO_LONG_NAME
##########          FlexRecCode: 1
##########               Number:                  327
##########   Ligand Source File: /proj/zinc22/users/x_andlu/OGG1/revisions/docking/targets/smyd3/db2gen/split_par
##########                 Rank:                    1
##########               Setnum:                    7
##########             Matchnum:                    6
##########                Cloud:                    1
##########        Electrostatic:           -28.278759
##########                 Gist:             0.000000
##########        Van der Waals:           -30.079489
##########  Ligand Polar Desolv:             8.136944
########## Ligand Apolar Desolv:            -2.249700
##########      Internal Energy:             0.000000
##########      Receptor Energy:             0.000000
########## Receptor Desolvation:             0.000000
########## Receptor Hydrophobic:             0.000000
##########         Total Energy:           -52.471001
##########        Ligand Charge:             1.000000
##########            Arbitrary:    +999.9990
##########        Ligand Energy:             0.000000

@<TRIPOS>MOLECULE
smyd3_128      none
   46    48     0     0     0
SMALL
USER_CHARGES

@<TRIPOS>ATOM
      1 C1         20.7129   -3.2662   14.8507 C.3       1 <0>        -0.1600
      2 C2         19.6901   -2.2751   15.4094 C.3       1 <0>        -0.1500
      3 C3         20.2176   -0.8488   15.2414 C.3       1 <0>        -0.0100
      4 N1         19.2356    0.1030   15.7778 N.4       1 <0>        -0.3800
      5 H1         18.8401   -0.2686   16.6285 H         1 <0>         0.4200
      6 C4         19.9003    1.3795   16.0657 C.3       1 <0>        -0.0000
      7 C5         18.8999    2.3483   16.7001 C.3       1 <0>        -0.1600
      8 C6         17.7392    2.5830   15.7292 C.3       1 <0>         0.1400
      9 N2         16.7404    3.4495   16.3599 N.am      1 <0>        -0.7300
     10 C7         15.9834    4.2678   15.6024 C.2       1 <0>         0.5700
     11 O1         16.1294    4.2869   14.3956 O.2       1 <0>        -0.5300
     12 C8         14.9772    5.1407   16.2381 C.ar      1 <0>        -0.1700
     13 C9         14.3959    4.7746   17.4548 C.ar      1 <0>        -0.0500
     14 C10        13.4578    5.5877   18.0463 C.ar      1 <0>        -0.1500
     15 C11        13.0784    6.7855   17.4372 C.ar      1 <0>         0.1900
     16 N3         12.1658    7.7558   17.8374 N.am      1 <0>        -0.6600
     17 C12        12.0848    8.7731   16.9638 C.2       1 <0>         0.5300
     18 O2         11.3728    9.7501   17.0601 O.2       1 <0>        -0.4800
     19 C13        13.0485    8.4707   15.8360 C.3       1 <0>        -0.1200
     20 C14        13.6649    7.1457   16.2232 C.ar      1 <0>        -0.1500
     21 C15        14.5983    6.3405   15.6264 C.ar      1 <0>         0.0000
     22 C16        17.1002    1.2364   15.3777 C.3       1 <0>        -0.1600
     23 C17        18.1673    0.3088   14.7925 C.3       1 <0>        -0.0100
     24 H2         20.3371   -4.2824   14.9703 H         1 <0>         0.0700
     25 H3         20.8766   -3.0618   13.7926 H         1 <0>         0.0800
     26 H4         21.6537   -3.1608   15.3909 H         1 <0>         0.0700
     27 H5         19.5263   -2.4795   16.4674 H         1 <0>         0.0900
     28 H6         18.7493   -2.3804   14.8690 H         1 <0>         0.0900
     29 H7         20.3815   -0.6441   14.1834 H         1 <0>         0.1300
     30 H8         21.1584   -0.7433   15.7818 H         1 <0>         0.1300
     31 H9         20.2818    1.8072   15.1386 H         1 <0>         0.1300
     32 H10        20.7279    1.2100   16.7546 H         1 <0>         0.1400
     33 H11        19.3950    3.2961   16.9114 H         1 <0>         0.1200
     34 H12        18.5179    1.9222   17.6278 H         1 <0>         0.0900
     35 H13        18.1131    3.0581   14.8221 H         1 <0>         0.1100
     36 H14        16.6239    3.4343   17.3228 H         1 <0>         0.4100
     37 H15        14.6841    3.8497   17.9322 H         1 <0>         0.1300
     38 H16        13.0120    5.2981   18.9864 H         1 <0>         0.1400
     39 H17        11.6464    7.7038   18.6549 H         1 <0>         0.4200
     40 H18        12.5141    8.3818   14.8902 H         1 <0>         0.1300
     41 H19        13.8142    9.2437   15.7700 H         1 <0>         0.1300
     42 H20        15.0414    6.6324   14.6857 H         1 <0>         0.1500
     43 H21        16.6811    0.7866   16.2778 H         1 <0>         0.0900
     44 H22        16.3088    1.3893   14.6441 H         1 <0>         0.1200
     45 H23        18.5856    0.7594   13.8925 H         1 <0>         0.1300
     46 H24        17.7153   -0.6506   14.5414 H         1 <0>         0.1400
@<TRIPOS>BOND
     1    1    2 1
     2    1   24 1
     3    1   25 1
     4    1   26 1
     5    2    3 1
     6    2   27 1
     7    2   28 1
     8    3    4 1
     9    3   29 1
    10    3   30 1
    11    4    5 1
    12    4   23 1
    13    4    6 1
    14    6    7 1
    15    6   31 1
    16    6   32 1
    17    7    8 1
    18    7   33 1
    19    7   34 1
    20    8    9 1
    21    8   22 1
    22    8   35 1
    23    9   10 am
    24    9   36 1
    25   10   11 2
    26   10   12 1
    27   12   21 ar
    28   12   13 ar
    29   13   14 ar
    30   13   37 1
    31   14   15 ar
    32   14   38 1
    33   15   20 ar
    34   15   16 1
    35   16   17 am
    36   16   39 1
    37   17   18 2
    38   17   19 1
    39   19   20 1
    40   19   40 1
    41   19   41 1
    42   20   21 ar
    43   21   42 1
    44   22   23 1
    45   22   43 1
    46   22   44 1
    47   23   45 1
    48   23   46 1
##########                 Name:            smyd3_129
##########          Protonation:                 none
##########               SMILES:   C=CC[NH+]1CCC(NC(=O)C2=CC=C3NC(=O)CC3=C2)CC1
##########            Long Name:   NO_LONG_NAME
##########          FlexRecCode: 1
##########               Number:                  331
##########   Ligand Source File: /proj/zinc22/users/x_andlu/OGG1/revisions/docking/targets/smyd3/db2gen/split_par
##########                 Rank:                    1
##########               Setnum:                   15
##########             Matchnum:                    6
##########                Cloud:                    1
##########        Electrostatic:           -28.380812
##########                 Gist:             0.000000
##########        Van der Waals:           -31.349457
##########  Ligand Polar Desolv:             8.362091
########## Ligand Apolar Desolv:            -2.310858
##########      Internal Energy:             0.000000
##########      Receptor Energy:             0.000000
########## Receptor Desolvation:             0.000000
########## Receptor Hydrophobic:             0.000000
##########         Total Energy:           -53.679039
##########        Ligand Charge:             1.000000
##########            Arbitrary:    +999.9990
##########        Ligand Energy:             0.000000

@<TRIPOS>MOLECULE
smyd3_129      none
   44    46     0     0     0
SMALL
USER_CHARGES

@<TRIPOS>ATOM
      1 C1         19.7369   -2.9442   14.4234 C.2       1 <0>        -0.1100
      2 C2         19.9069   -2.1731   15.4686 C.2       1 <0>        -0.2400
      3 C3         20.4034   -0.7615   15.2907 C.3       1 <0>         0.0300
      4 N1         19.4053    0.1788   15.8178 N.4       1 <0>        -0.3800
      5 H1         19.0154   -0.1916   16.6716 H         1 <0>         0.4200
      6 C4         20.0487    1.4687   16.0945 C.3       1 <0>        -0.0000
      7 C5         19.0320    2.4266   16.7194 C.3       1 <0>        -0.1600
      8 C6         17.8682    2.6332   15.7457 C.3       1 <0>         0.1400
      9 N2         16.8548    3.4888   16.3680 N.am      1 <0>        -0.7300
     10 C7         16.0850    4.2875   15.6026 C.2       1 <0>         0.5700
     11 O1         16.2315    4.2981   14.3957 O.2       1 <0>        -0.5300
     12 C8         15.0640    5.1494   16.2296 C.ar      1 <0>        -0.1700
     13 C9         14.4879    4.7848   17.4493 C.ar      1 <0>        -0.0500
     14 C10        13.5361    5.5877   18.0328 C.ar      1 <0>        -0.1500
     15 C11        13.1374    6.7734   17.4126 C.ar      1 <0>         0.1900
     16 N3         12.2086    7.7322   17.8034 N.am      1 <0>        -0.6600
     17 C12        12.1114    8.7400   16.9205 C.2       1 <0>         0.5300
     18 O2         11.3833    9.7059   17.0075 O.2       1 <0>        -0.4800
     19 C13        13.0809    8.4433   15.7961 C.3       1 <0>        -0.1200
     20 C14        13.7188    7.1323   16.1957 C.ar      1 <0>        -0.1500
     21 C15        14.6657    6.3372   15.6069 C.ar      1 <0>         0.0000
     22 C16        17.2518    1.2731   15.4062 C.3       1 <0>        -0.1600
     23 C17        18.3346    0.3580   14.8300 C.3       1 <0>        -0.0000
     24 H2         19.3811   -3.9560   14.5509 H         1 <0>         0.1200
     25 H3         19.9527   -2.5684   13.4342 H         1 <0>         0.1100
     26 H4         19.6911   -2.5490   16.4578 H         1 <0>         0.1300
     27 H5         20.5646   -0.5638   14.2311 H         1 <0>         0.1300
     28 H6         21.3419   -0.6355   15.8307 H         1 <0>         0.1400
     29 H7         20.4237    1.8942   15.1638 H         1 <0>         0.1300
     30 H8         20.8787    1.3196   16.7851 H         1 <0>         0.1400
     31 H9         19.5112    3.3843   16.9224 H         1 <0>         0.1200
     32 H10        18.6563    2.0027   17.6507 H         1 <0>         0.0900
     33 H11        18.2349    3.1062   14.8346 H         1 <0>         0.1100
     34 H12        16.7379    3.4804   17.3308 H         1 <0>         0.4100
     35 H13        14.7910    3.8692   17.9352 H         1 <0>         0.1300
     36 H14        13.0944    5.2993   18.9753 H         1 <0>         0.1400
     37 H15        11.6895    7.6790   18.6211 H         1 <0>         0.4200
     38 H16        12.5488    8.3370   14.8508 H         1 <0>         0.1300
     39 H17        13.8337    9.2282   15.7236 H         1 <0>         0.1300
     40 H18        15.1047    6.6278   14.6638 H         1 <0>         0.1500
     41 H19        16.8395    0.8246   16.3100 H         1 <0>         0.0900
     42 H20        16.4586    1.4063   14.6707 H         1 <0>         0.1200
     43 H21        18.7461    0.8072   13.9262 H         1 <0>         0.1300
     44 H22        17.8987   -0.6110   14.5875 H         1 <0>         0.1400
@<TRIPOS>BOND
     1    1    2 2
     2    1   24 1
     3    1   25 1
     4    2    3 1
     5    2   26 1
     6    3    4 1
     7    3   27 1
     8    3   28 1
     9    4    5 1
    10    4   23 1
    11    4    6 1
    12    6    7 1
    13    6   29 1
    14    6   30 1
    15    7    8 1
    16    7   31 1
    17    7   32 1
    18    8    9 1
    19    8   22 1
    20    8   33 1
    21    9   10 am
    22    9   34 1
    23   10   11 2
    24   10   12 1
    25   12   21 ar
    26   12   13 ar
    27   13   14 ar
    28   13   35 1
    29   14   15 ar
    30   14   36 1
    31   15   20 ar
    32   15   16 1
    33   16   17 am
    34   16   37 1
    35   17   18 2
    36   17   19 1
    37   19   20 1
    38   19   38 1
    39   19   39 1
    40   20   21 ar
    41   21   40 1
    42   22   23 1
    43   22   41 1
    44   22   42 1
    45   23   43 1
    46   23   44 1
##########                 Name:            smyd3_130
##########          Protonation:                 none
##########               SMILES:   O=C1CC2=C(C=CC(C(=O)NC3CC[NH+](CCO)CC3)=C2)N1
##########            Long Name:   NO_LONG_NAME
##########          FlexRecCode: 1
##########               Number:                  334
##########   Ligand Source File: /proj/zinc22/users/x_andlu/OGG1/revisions/docking/targets/smyd3/db2gen/split_par
##########                 Rank:                    1
##########               Setnum:                   24
##########             Matchnum:                   11
##########                Cloud:                    1
##########        Electrostatic:           -28.838760
##########                 Gist:             0.000000
##########        Van der Waals:           -29.536432
##########  Ligand Polar Desolv:             6.937584
########## Ligand Apolar Desolv:            -1.132980
##########      Internal Energy:             0.000000
##########      Receptor Energy:             0.000000
########## Receptor Desolvation:             0.000000
########## Receptor Hydrophobic:             0.000000
##########         Total Energy:           -52.570587
##########        Ligand Charge:             1.000000
##########            Arbitrary:    +999.9990
##########        Ligand Energy:             0.000000

@<TRIPOS>MOLECULE
smyd3_130      none
   44    46     0     0     0
SMALL
USER_CHARGES

@<TRIPOS>ATOM
      1 O1         11.2964    9.6903   16.9906 O.2       1 <0>        -0.4800
      2 C1         12.0331    8.7305   16.9092 C.2       1 <0>         0.5300
      3 C2         13.0088    8.4383   15.7891 C.3       1 <0>        -0.1200
      4 C3         13.6565    7.1341   16.1951 C.ar      1 <0>        -0.1500
      5 C4         13.0744    6.7744   17.4109 C.ar      1 <0>         0.1900
      6 C5         13.4808    5.5934   18.0362 C.ar      1 <0>        -0.1500
      7 C6         14.4407    4.7968   17.4583 C.ar      1 <0>        -0.0500
      8 C7         15.0182    5.1628   16.2392 C.ar      1 <0>        -0.1700
      9 C8         16.0485    4.3074   15.6184 C.2       1 <0>         0.5700
     10 O2         16.1989    4.3152   14.4119 O.2       1 <0>        -0.5300
     11 N1         16.8224    3.5177   16.3888 N.am      1 <0>        -0.7300
     12 C9         17.8449    2.6685   15.7725 C.3       1 <0>         0.1400
     13 C10        17.2410    1.3021   15.4357 C.3       1 <0>        -0.1600
     14 C11        18.3332    0.3944   14.8661 C.3       1 <0>        -0.0000
     15 N2         19.4022    0.2274   15.8578 N.4       1 <0>        -0.3800
     16 H1         19.0128   -0.1433   16.7115 H         1 <0>         0.4300
     17 C12        20.4099   -0.7062   15.3370 C.3       1 <0>        -0.0100
     18 C13        19.9193   -2.1431   15.5251 C.3       1 <0>         0.0400
     19 O3         19.7088   -2.3964   16.9158 O.3       1 <0>        -0.5800
     20 C14        20.0341    1.5235   16.1322 C.3       1 <0>        -0.0100
     21 C15        19.0073    2.4749   16.7506 C.3       1 <0>        -0.1600
     22 C16        14.6125    6.3449   15.6118 C.ar      1 <0>         0.0000
     23 N3         12.1361    7.7263   17.7956 N.am      1 <0>        -0.6600
     24 H2         12.4808    8.3243   14.8424 H         1 <0>         0.1300
     25 H3         13.7553    9.2294   15.7164 H         1 <0>         0.1300
     26 H4         13.0385    5.3044   18.9781 H         1 <0>         0.1400
     27 H5         14.7494    3.8849   17.9479 H         1 <0>         0.1300
     28 H6         16.7026    3.5115   17.3514 H         1 <0>         0.4100
     29 H7         18.2106    3.1416   14.8610 H         1 <0>         0.1100
     30 H8         16.8295    0.8532   16.3398 H         1 <0>         0.0900
     31 H9         16.4491    1.4263   14.6972 H         1 <0>         0.1200
     32 H10        18.7439    0.8440   13.9619 H         1 <0>         0.1300
     33 H11        17.9063   -0.5792   14.6253 H         1 <0>         0.1300
     34 H12        20.5704   -0.5131   14.2762 H         1 <0>         0.1400
     35 H13        21.3465   -0.5684   15.8771 H         1 <0>         0.1400
     36 H14        18.9826   -2.2810   14.9849 H         1 <0>         0.1000
     37 H15        20.6668   -2.8359   15.1386 H         1 <0>         0.0700
     38 H16        19.0543   -1.8153   17.3266 H         1 <0>         0.4100
     39 H17        20.4084    1.9491   15.2012 H         1 <0>         0.1300
     40 H18        20.8628    1.3831   16.8261 H         1 <0>         0.1300
     41 H19        19.4779    3.4372   16.9521 H         1 <0>         0.1200
     42 H20        18.6324    2.0511   17.6822 H         1 <0>         0.1000
     43 H21        15.0525    6.6366   14.6696 H         1 <0>         0.1500
     44 H22        11.6148    7.6712   18.6118 H         1 <0>         0.4200
@<TRIPOS>BOND
     1    1    2 2
     2    2   23 am
     3    2    3 1
     4    3    4 1
     5    3   24 1
     6    3   25 1
     7    4   22 ar
     8    4    5 ar
     9    5    6 ar
    10    5   23 1
    11    6    7 ar
    12    6   26 1
    13    7    8 ar
    14    7   27 1
    15    8    9 1
    16    8   22 ar
    17    9   10 2
    18    9   11 am
    19   11   12 1
    20   11   28 1
    21   12   21 1
    22   12   13 1
    23   12   29 1
    24   13   14 1
    25   13   30 1
    26   13   31 1
    27   14   15 1
    28   14   32 1
    29   14   33 1
    30   15   16 1
    31   15   17 1
    32   15   20 1
    33   17   18 1
    34   17   34 1
    35   17   35 1
    36   18   19 1
    37   18   36 1
    38   18   37 1
    39   19   38 1
    40   20   21 1
    41   20   39 1
    42   20   40 1
    43   21   41 1
    44   21   42 1
    45   22   43 1
    46   23   44 1
##########                 Name:            smyd3_132
##########          Protonation:                 none
##########               SMILES:   CC1C[N@H+](C)CCC1N(C)C(=O)C1=CC2=C(C=C1Cl)NC(=O)C2
##########            Long Name:   NO_LONG_NAME
##########          FlexRecCode: 1
##########               Number:                  341
##########   Ligand Source File: /proj/zinc22/users/x_andlu/OGG1/revisions/docking/targets/smyd3/db2gen/split_par
##########                 Rank:                    1
##########               Setnum:                    7
##########             Matchnum:                    1
##########                Cloud:                    1
##########        Electrostatic:           -20.428217
##########                 Gist:             0.000000
##########        Van der Waals:           -19.316250
##########  Ligand Polar Desolv:            10.139637
########## Ligand Apolar Desolv:            -2.660947
##########      Internal Energy:             0.000000
##########      Receptor Energy:             0.000000
########## Receptor Desolvation:             0.000000
########## Receptor Hydrophobic:             0.000000
##########         Total Energy:           -32.265778
##########        Ligand Charge:             1.000000
##########            Arbitrary:    +999.9990
##########        Ligand Energy:             0.000000

@<TRIPOS>MOLECULE
smyd3_132      none
   46    48     0     0     0
SMALL
USER_CHARGES

@<TRIPOS>ATOM
      1 C1         18.8467    3.2860   14.0809 C.3       1 <0>        -0.1500
      2 C2         18.3186    2.1468   14.9550 C.3       1 <0>        -0.1300
      3 C3         19.4568    1.1735   15.2688 C.3       1 <0>        -0.0000
      4 N1         18.9532    0.0807   16.1093 N.4       1 <0>        -0.3800
      5 H1         19.6930   -0.5862   16.2711 H         1 <0>         0.4300
      6 C4         17.8360   -0.5854   15.4266 C.3       1 <0>        -0.0600
      7 C5         18.4902    0.6147   17.3959 C.3       1 <0>        -0.0000
      8 C6         17.3147    1.5664   17.1639 C.3       1 <0>        -0.1600
      9 C7         17.7686    2.7197   16.2644 C.3       1 <0>         0.1400
     10 N2         16.6301    3.5954   15.9760 N.am      1 <0>        -0.6100
     11 C8         15.4459    3.0589   15.3008 C.3       1 <0>         0.0700
     12 C9         16.6722    4.8947   16.3319 C.2       1 <0>         0.5800
     13 O1         17.7373    5.4799   16.3719 O.2       1 <0>        -0.5000
     14 C10        15.4261    5.6068   16.6730 C.ar      1 <0>        -0.1600
     15 C11        15.0290    6.7260   15.9336 C.ar      1 <0>        -0.0200
     16 C12        13.8683    7.3816   16.2586 C.ar      1 <0>        -0.1500
     17 C13        13.0736    6.9504   17.3175 C.ar      1 <0>         0.1900
     18 C14        13.4703    5.8338   18.0558 C.ar      1 <0>        -0.1400
     19 C15        14.6295    5.1645   17.7347 C.ar      1 <0>         0.0500
     20 Cl1        15.1084    3.7726   18.6547 Cl        1 <0>        -0.0300
     21 N3         11.9588    7.7721   17.4471 N.am      1 <0>        -0.6600
     22 C16        11.9379    8.7541   16.5308 C.2       1 <0>         0.5300
     23 O2         11.0870    9.6100   16.4116 O.2       1 <0>        -0.4800
     24 C17        13.1756    8.5916   15.6743 C.3       1 <0>        -0.1100
     25 H2         19.2380    2.8776   13.1492 H         1 <0>         0.0700
     26 H3         18.0364    3.9810   13.8609 H         1 <0>         0.0800
     27 H4         19.6421    3.8110   14.6099 H         1 <0>         0.0700
     28 H5         17.5243    1.6198   14.4263 H         1 <0>         0.1000
     29 H6         20.2506    1.7016   15.7972 H         1 <0>         0.1300
     30 H7         19.8502    0.7640   14.3384 H         1 <0>         0.1400
     31 H8         17.4614   -1.3971   16.0501 H         1 <0>         0.1300
     32 H9         18.1804   -0.9880   14.4741 H         1 <0>         0.1200
     33 H10        17.0374    0.1349   15.2492 H         1 <0>         0.1300
     34 H11        18.1705   -0.2075   18.0361 H         1 <0>         0.1400
     35 H12        19.3045    1.1547   17.8788 H         1 <0>         0.1300
     36 H13        16.9735    1.9633   18.1201 H         1 <0>         0.1200
     37 H14        16.4996    1.0274   16.6811 H         1 <0>         0.0900
     38 H15        18.5485    3.2901   16.7687 H         1 <0>         0.1200
     39 H16        14.7096    3.8526   15.1733 H         1 <0>         0.0700
     40 H17        15.7307    2.6674   14.3242 H         1 <0>         0.0800
     41 H18        15.0162    2.2579   15.9023 H         1 <0>         0.0700
     42 H19        15.6341    7.0728   15.1091 H         1 <0>         0.1500
     43 H20        12.8617    5.4900   18.8792 H         1 <0>         0.1500
     44 H21        11.2737    7.6498   18.1230 H         1 <0>         0.4200
     45 H22        13.8133    9.4722   15.7532 H         1 <0>         0.1300
     46 H23        12.9025    8.4107   14.6347 H         1 <0>         0.1300
@<TRIPOS>BOND
     1    1    2 1
     2    1   25 1
     3    1   26 1
     4    1   27 1
     5    2    9 1
     6    2    3 1
     7    2   28 1
     8    3    4 1
     9    3   29 1
    10    3   30 1
    11    4    5 1
    12    4    6 1
    13    4    7 1
    14    6   31 1
    15    6   32 1
    16    6   33 1
    17    7    8 1
    18    7   34 1
    19    7   35 1
    20    8    9 1
    21    8   36 1
    22    8   37 1
    23    9   10 1
    24    9   38 1
    25   10   11 1
    26   10   12 am
    27   11   39 1
    28   11   40 1
    29   11   41 1
    30   12   13 2
    31   12   14 1
    32   14   19 ar
    33   14   15 ar
    34   15   16 ar
    35   15   42 1
    36   16   24 1
    37   16   17 ar
    38   17   18 ar
    39   17   21 1
    40   18   19 ar
    41   18   43 1
    42   19   20 1
    43   21   22 am
    44   21   44 1
    45   22   23 2
    46   22   24 1
    47   24   45 1
    48   24   46 1
##########                 Name:            smyd3_133
##########          Protonation:                 none
##########               SMILES:   CC1CC(N(C)C(=O)C2=CC3=C(C=C2Cl)NC(=O)C3)CC[N@@H+]1C
##########            Long Name:   NO_LONG_NAME
##########          FlexRecCode: 1
##########               Number:                  345
##########   Ligand Source File: /proj/zinc22/users/x_andlu/OGG1/revisions/docking/targets/smyd3/db2gen/split_par
##########                 Rank:                    1
##########               Setnum:                   16
##########             Matchnum:                    2
##########                Cloud:                    1
##########        Electrostatic:           -19.779209
##########                 Gist:             0.000000
##########        Van der Waals:           -30.986797
##########  Ligand Polar Desolv:            10.525198
########## Ligand Apolar Desolv:            -2.642844
##########      Internal Energy:             0.000000
##########      Receptor Energy:             0.000000
########## Receptor Desolvation:             0.000000
########## Receptor Hydrophobic:             0.000000
##########         Total Energy:           -42.883652
##########        Ligand Charge:             1.000000
##########            Arbitrary:    +999.9990
##########        Ligand Energy:             0.000000

@<TRIPOS>MOLECULE
smyd3_133      none
   46    48     0     0     0
SMALL
USER_CHARGES

@<TRIPOS>ATOM
      1 C1         19.3835    1.1098   15.0502 C.3       1 <0>        -0.1900
      2 C2         17.9942    0.4703   15.0861 C.3       1 <0>         0.0300
      3 C3         16.9321    1.5454   14.8455 C.3       1 <0>        -0.1500
      4 C4         17.0340    2.6101   15.9413 C.3       1 <0>         0.1300
      5 N1         15.9715    3.6023   15.7606 N.am      1 <0>        -0.6100
      6 C5         14.6959    3.2080   15.1576 C.3       1 <0>         0.0600
      7 C6         16.1674    4.8780   16.1492 C.2       1 <0>         0.5700
      8 O1         17.2858    5.3547   16.1290 O.2       1 <0>        -0.5000
      9 C7         15.0250    5.6957   16.5992 C.ar      1 <0>        -0.1600
     10 C8         14.6955    6.8769   15.9265 C.ar      1 <0>        -0.0200
     11 C9         13.6315    7.6308   16.3530 C.ar      1 <0>        -0.1500
     12 C10        12.8660    7.2365   17.4473 C.ar      1 <0>         0.1900
     13 C11        13.1982    6.0602   18.1219 C.ar      1 <0>        -0.1400
     14 C12        14.2633    5.2959   17.7025 C.ar      1 <0>         0.0500
     15 Cl1        14.6629    3.8317   18.5454 Cl        1 <0>        -0.0300
     16 N2         11.8544    8.1613   17.6843 N.am      1 <0>        -0.6600
     17 C13        11.8727    9.1761   16.8041 C.2       1 <0>         0.5300
     18 O2         11.1071   10.1162   16.7728 O.2       1 <0>        -0.4800
     19 C14        13.0280    8.9257   15.8583 C.3       1 <0>        -0.1100
     20 C15        16.8797    1.9378   17.3085 C.3       1 <0>        -0.1600
     21 C16        17.9436    0.8481   17.4579 C.3       1 <0>        -0.0100
     22 N3         17.7766   -0.1526   16.3972 N.4       1 <0>        -0.3800
     23 H1         16.8422   -0.5314   16.4377 H         1 <0>         0.4200
     24 C17        18.7495   -1.2361   16.5904 C.3       1 <0>        -0.0500
     25 H2         19.5454    1.5725   14.0766 H         1 <0>         0.0800
     26 H3         19.4546    1.8686   15.8294 H         1 <0>         0.1100
     27 H4         20.1406    0.3438   15.2188 H         1 <0>         0.0800
     28 H5         17.9239   -0.2892   14.3074 H         1 <0>         0.1400
     29 H6         15.9418    1.0909   14.8706 H         1 <0>         0.0900
     30 H7         17.0966    2.0079   13.8722 H         1 <0>         0.1200
     31 H8         18.0053    3.1017   15.8845 H         1 <0>         0.1200
     32 H9         14.0355    4.0737   15.1059 H         1 <0>         0.0700
     33 H10        14.8721    2.8249   14.1525 H         1 <0>         0.0700
     34 H11        14.2309    2.4321   15.7658 H         1 <0>         0.0900
     35 H12        15.2768    7.1944   15.0734 H         1 <0>         0.1500
     36 H13        12.6140    5.7463   18.9743 H         1 <0>         0.1500
     37 H14        11.2068    8.0809   18.4019 H         1 <0>         0.4200
     38 H15        13.7555    9.7350   15.9212 H         1 <0>         0.1300
     39 H16        12.6697    8.8140   14.8350 H         1 <0>         0.1300
     40 H17        17.0066    2.6807   18.0959 H         1 <0>         0.1200
     41 H18        15.8879    1.4920   17.3851 H         1 <0>         0.0900
     42 H19        18.9346    1.2955   17.3818 H         1 <0>         0.1400
     43 H20        17.8363    0.3670   18.4302 H         1 <0>         0.1400
     44 H21        18.5889   -1.6994   17.5639 H         1 <0>         0.1300
     45 H22        18.6220   -1.9830   15.8070 H         1 <0>         0.1200
     46 H23        19.7599   -0.8296   16.5439 H         1 <0>         0.1200
@<TRIPOS>BOND
     1    1    2 1
     2    1   25 1
     3    1   26 1
     4    1   27 1
     5    2   22 1
     6    2    3 1
     7    2   28 1
     8    3    4 1
     9    3   29 1
    10    3   30 1
    11    4    5 1
    12    4   20 1
    13    4   31 1
    14    5    6 1
    15    5    7 am
    16    6   32 1
    17    6   33 1
    18    6   34 1
    19    7    8 2
    20    7    9 1
    21    9   14 ar
    22    9   10 ar
    23   10   11 ar
    24   10   35 1
    25   11   19 1
    26   11   12 ar
    27   12   13 ar
    28   12   16 1
    29   13   14 ar
    30   13   36 1
    31   14   15 1
    32   16   17 am
    33   16   37 1
    34   17   18 2
    35   17   19 1
    36   19   38 1
    37   19   39 1
    38   20   21 1
    39   20   40 1
    40   20   41 1
    41   21   22 1
    42   21   42 1
    43   21   43 1
    44   22   23 1
    45   22   24 1
    46   24   44 1
    47   24   45 1
    48   24   46 1
##########                 Name:            smyd3_134
##########          Protonation:                 none
##########               SMILES:   CON1CCC(N(C)C(=O)C2=CC3=C(C=C2Cl)NC(=O)C3)CC1
##########            Long Name:   NO_LONG_NAME
##########          FlexRecCode: 1
##########               Number:                  347
##########   Ligand Source File: /proj/zinc22/users/x_andlu/OGG1/revisions/docking/targets/smyd3/db2gen/split_par
##########                 Rank:                    1
##########               Setnum:                   47
##########             Matchnum:                   13
##########                Cloud:                    1
##########        Electrostatic:           -14.223578
##########                 Gist:             0.000000
##########        Van der Waals:           -30.419769
##########  Ligand Polar Desolv:             6.779576
########## Ligand Apolar Desolv:            -2.089038
##########      Internal Energy:             0.000000
##########      Receptor Energy:             0.000000
########## Receptor Desolvation:             0.000000
########## Receptor Hydrophobic:             0.000000
##########         Total Energy:           -39.952812
##########        Ligand Charge:             0.000000
##########            Arbitrary:    +999.9990
##########        Ligand Energy:             0.000000

@<TRIPOS>MOLECULE
smyd3_134      none
   43    45     0     0     0
SMALL
USER_CHARGES

@<TRIPOS>ATOM
      1 C1         18.2040   -2.6233   15.9894 C.3       1 <0>         0.0400
      2 O1         18.3919   -1.5339   16.8948 O.3       1 <0>        -0.2600
      3 N1         17.4894   -0.4057   16.6636 N.3       1 <0>        -0.3700
      4 C2         17.5980    0.0805   15.2822 C.3       1 <0>         0.0500
      5 C3         16.5413    1.1595   15.0352 C.3       1 <0>        -0.1200
      6 C4         16.7558    2.3121   16.0202 C.3       1 <0>         0.1400
      7 N2         15.7127    3.3223   15.8264 N.am      1 <0>        -0.6000
      8 C5         14.3848    2.9227   15.3537 C.3       1 <0>         0.0700
      9 C6         15.9745    4.6192   16.0831 C.2       1 <0>         0.5700
     10 O2         17.1020    5.0516   15.9404 O.2       1 <0>        -0.5100
     11 C7         14.8931    5.5142   16.5368 C.ar      1 <0>        -0.1400
     12 C8         14.5456    6.6390   15.7812 C.ar      1 <0>        -0.0200
     13 C9         13.5383    7.4652   16.2116 C.ar      1 <0>        -0.1500
     14 C10        12.8515    7.2029   17.3940 C.ar      1 <0>         0.1800
     15 C11        13.1984    6.0804   18.1481 C.ar      1 <0>        -0.1400
     16 C12        14.2033    5.2413   17.7230 C.ar      1 <0>         0.0400
     17 Cl1        14.6210    3.8444   18.6653 Cl        1 <0>        -0.0300
     18 N3         11.8834    8.1774   17.6135 N.am      1 <0>        -0.6600
     19 C13        11.8622    9.1053   16.6423 C.2       1 <0>         0.5300
     20 O3         11.1226   10.0642   16.5785 O.2       1 <0>        -0.4900
     21 C14        12.9346    8.7289   15.6422 C.3       1 <0>        -0.1100
     22 C15        16.6859    1.7703   17.4507 C.3       1 <0>        -0.1200
     23 C16        17.7385    0.6737   17.6275 C.3       1 <0>         0.0400
     24 H1         18.9103   -3.4189   16.2269 H         1 <0>         0.0900
     25 H2         17.1860   -3.0017   16.0824 H         1 <0>         0.0400
     26 H3         18.3725   -2.2807   14.9685 H         1 <0>         0.0500
     27 H4         17.4392   -0.7480   14.5920 H         1 <0>         0.0900
     28 H5         18.5908    0.5012   15.1224 H         1 <0>         0.0500
     29 H6         15.5476    0.7359   15.1816 H         1 <0>         0.0800
     30 H7         16.6317    1.5314   14.0147 H         1 <0>         0.0800
     31 H8         17.7340    2.7609   15.8481 H         1 <0>         0.1100
     32 H9         13.7483    3.8036   15.2709 H         1 <0>         0.0600
     33 H10        14.4749    2.4464   14.3775 H         1 <0>         0.0700
     34 H11        13.9434    2.2206   16.0611 H         1 <0>         0.0800
     35 H12        15.0684    6.8561   14.8615 H         1 <0>         0.1500
     36 H13        12.6729    5.8670   19.0672 H         1 <0>         0.1500
     37 H14        11.2903    8.1858   18.3810 H         1 <0>         0.4200
     38 H15        13.6868    9.5149   15.5744 H         1 <0>         0.1300
     39 H16        12.4940    8.5349   14.6642 H         1 <0>         0.1300
     40 H17        16.8803    2.5785   18.1558 H         1 <0>         0.0800
     41 H18        15.6945    1.3564   17.6350 H         1 <0>         0.0800
     42 H19        17.6817    0.2757   18.6408 H         1 <0>         0.0900
     43 H20        18.7305    1.0916   17.4565 H         1 <0>         0.0500
@<TRIPOS>BOND
     1    1    2 1
     2    1   24 1
     3    1   25 1
     4    1   26 1
     5    2    3 1
     6    3   23 1
     7    3    4 1
     8    4    5 1
     9    4   27 1
    10    4   28 1
    11    5    6 1
    12    5   29 1
    13    5   30 1
    14    6    7 1
    15    6   22 1
    16    6   31 1
    17    7    8 1
    18    7    9 am
    19    8   32 1
    20    8   33 1
    21    8   34 1
    22    9   10 2
    23    9   11 1
    24   11   16 ar
    25   11   12 ar
    26   12   13 ar
    27   12   35 1
    28   13   21 1
    29   13   14 ar
    30   14   15 ar
    31   14   18 1
    32   15   16 ar
    33   15   36 1
    34   16   17 1
    35   18   19 am
    36   18   37 1
    37   19   20 2
    38   19   21 1
    39   21   38 1
    40   21   39 1
    41   22   23 1
    42   22   40 1
    43   22   41 1
    44   23   42 1
    45   23   43 1
##########                 Name:            smyd3_135
##########          Protonation:                 none
##########               SMILES:   CCN(C(=O)C1=CC2=C(C=C1Cl)NC(=O)C2)C1CC[NH+](C)CC1
##########            Long Name:   NO_LONG_NAME
##########          FlexRecCode: 1
##########               Number:                  350
##########   Ligand Source File: /proj/zinc22/users/x_andlu/OGG1/revisions/docking/targets/smyd3/db2gen/split_par
##########                 Rank:                    1
##########               Setnum:                    5
##########             Matchnum:                    7
##########                Cloud:                    1
##########        Electrostatic:           -17.844961
##########                 Gist:             0.000000
##########        Van der Waals:           -29.981516
##########  Ligand Polar Desolv:             9.256287
########## Ligand Apolar Desolv:            -2.849469
##########      Internal Energy:             0.000000
##########      Receptor Energy:             0.000000
########## Receptor Desolvation:             0.000000
########## Receptor Hydrophobic:             0.000000
##########         Total Energy:           -41.419659
##########        Ligand Charge:             1.000000
##########            Arbitrary:    +999.9990
##########        Ligand Energy:             0.000000

@<TRIPOS>MOLECULE
smyd3_135      none
   46    48     0     0     0
SMALL
USER_CHARGES

@<TRIPOS>ATOM
      1 C1         18.4830    6.4272   14.8884 C.3       1 <0>        -0.1700
      2 C2         18.0013    5.7330   16.1638 C.3       1 <0>         0.0900
      3 N1         17.4956    4.3985   15.8322 N.am      1 <0>        -0.6000
      4 C3         16.1959    4.2293   15.5186 C.2       1 <0>         0.5800
      5 O1         15.8653    3.3439   14.7537 O.2       1 <0>        -0.5200
      6 C4         15.1741    5.1182   16.1036 C.ar      1 <0>        -0.1600
      7 C5         14.8078    6.2983   15.4480 C.ar      1 <0>        -0.0200
      8 C6         13.8565    7.1185   16.0002 C.ar      1 <0>        -0.1400
      9 C7         13.2453    6.7954   17.2089 C.ar      1 <0>         0.1900
     10 C8         13.6109    5.6176   17.8632 C.ar      1 <0>        -0.1400
     11 C9         14.5599    4.7845   17.3156 C.ar      1 <0>         0.0400
     12 Cl1        15.0013    3.3189   18.1348 Cl        1 <0>        -0.0400
     13 N2         12.3227    7.7763   17.5579 N.am      1 <0>        -0.6600
     14 C10        12.2615    8.7664   16.6520 C.2       1 <0>         0.5300
     15 O2         11.5468    9.7449   16.7019 O.2       1 <0>        -0.4800
     16 C11        13.2514    8.4311   15.5568 C.3       1 <0>        -0.1200
     17 C12        18.4028    3.2483   15.8413 C.3       1 <0>         0.1500
     18 C13        18.4329    2.6087   14.4503 C.3       1 <0>        -0.1700
     19 C14        19.3179    1.3609   14.4877 C.3       1 <0>         0.0000
     20 N3         18.7790    0.4014   15.4592 N.4       1 <0>        -0.3900
     21 H1         17.8255    0.1789   15.2155 H         1 <0>         0.4300
     22 C15        19.5879   -0.8245   15.4348 C.3       1 <0>        -0.0500
     23 C16        18.8152    0.9830   16.8064 C.3       1 <0>         0.0000
     24 C17        17.9094    2.2152   16.8585 C.3       1 <0>        -0.1700
     25 H2         18.8593    7.4200   15.1350 H         1 <0>         0.0600
     26 H3         19.2802    5.8393   14.4334 H         1 <0>         0.0600
     27 H4         17.6528    6.5171   14.1877 H         1 <0>         0.0800
     28 H5         18.8317    5.6430   16.8642 H         1 <0>         0.0900
     29 H6         17.2042    6.3210   16.6187 H         1 <0>         0.1000
     30 H7         15.2722    6.5630   14.5096 H         1 <0>         0.1500
     31 H8         13.1439    5.3569   18.8014 H         1 <0>         0.1500
     32 H9         11.7843    7.7484   18.3642 H         1 <0>         0.4200
     33 H10        14.0193    9.2015   15.4868 H         1 <0>         0.1300
     34 H11        12.7394    8.3125   14.6019 H         1 <0>         0.1300
     35 H12        19.4057    3.5772   16.1131 H         1 <0>         0.1100
     36 H13        17.4215    2.3276   14.1569 H         1 <0>         0.1100
     37 H14        18.8364    3.3211   13.7308 H         1 <0>         0.1100
     38 H15        20.3293    1.6434   14.7796 H         1 <0>         0.1300
     39 H16        19.3401    0.9025   13.4991 H         1 <0>         0.1300
     40 H17        19.1886   -1.5377   16.1558 H         1 <0>         0.1200
     41 H18        19.5564   -1.2608   14.4364 H         1 <0>         0.1200
     42 H19        20.6190   -0.5846   15.6941 H         1 <0>         0.1200
     43 H20        19.8374    1.2736   17.0487 H         1 <0>         0.1300
     44 H21        18.4665    0.2454   17.5291 H         1 <0>         0.1300
     45 H22        17.9390    2.6466   17.8592 H         1 <0>         0.1100
     46 H23        16.8865    1.9262   16.6169 H         1 <0>         0.1100
@<TRIPOS>BOND
     1    1    2 1
     2    1   25 1
     3    1   26 1
     4    1   27 1
     5    2    3 1
     6    2   28 1
     7    2   29 1
     8    3    4 am
     9    3   17 1
    10    4    5 2
    11    4    6 1
    12    6   11 ar
    13    6    7 ar
    14    7    8 ar
    15    7   30 1
    16    8   16 1
    17    8    9 ar
    18    9   10 ar
    19    9   13 1
    20   10   11 ar
    21   10   31 1
    22   11   12 1
    23   13   14 am
    24   13   32 1
    25   14   15 2
    26   14   16 1
    27   16   33 1
    28   16   34 1
    29   17   24 1
    30   17   18 1
    31   17   35 1
    32   18   19 1
    33   18   36 1
    34   18   37 1
    35   19   20 1
    36   19   38 1
    37   19   39 1
    38   20   21 1
    39   20   22 1
    40   20   23 1
    41   22   40 1
    42   22   41 1
    43   22   42 1
    44   23   24 1
    45   23   43 1
    46   23   44 1
    47   24   45 1
    48   24   46 1
##########                 Name:            smyd3_136
##########          Protonation:                 none
##########               SMILES:   CC[NH+]1CCC(N(C)C(=O)C2=CC3=C(C=C2Cl)NC(=O)C3)CC1
##########            Long Name:   NO_LONG_NAME
##########          FlexRecCode: 1
##########               Number:                  353
##########   Ligand Source File: /proj/zinc22/users/x_andlu/OGG1/revisions/docking/targets/smyd3/db2gen/split_par
##########                 Rank:                    1
##########               Setnum:                   57
##########             Matchnum:                    4
##########                Cloud:                    1
##########        Electrostatic:           -20.275158
##########                 Gist:             0.000000
##########        Van der Waals:           -33.245914
##########  Ligand Polar Desolv:            11.193763
########## Ligand Apolar Desolv:            -2.755999
##########      Internal Energy:             0.000000
##########      Receptor Energy:             0.000000
########## Receptor Desolvation:             0.000000
########## Receptor Hydrophobic:             0.000000
##########         Total Energy:           -45.083309
##########        Ligand Charge:             1.000000
##########            Arbitrary:    +999.9990
##########        Ligand Energy:             0.000000

@<TRIPOS>MOLECULE
smyd3_136      none
   46    48     0     0     0
SMALL
USER_CHARGES

@<TRIPOS>ATOM
      1 C1         19.8115   -1.1937   16.2697 C.3       1 <0>        -0.1900
      2 C2         20.4372    0.1744   15.9905 C.3       1 <0>        -0.0100
      3 N1         19.3748    1.1783   15.8438 N.4       1 <0>        -0.3900
      4 H1         19.7885    2.0799   15.6597 H         1 <0>         0.4200
      5 C3         18.5018    0.8044   14.7246 C.3       1 <0>        -0.0000
      6 C4         17.4405    1.8869   14.5170 C.3       1 <0>        -0.1600
      7 C5         16.6056    2.0269   15.7931 C.3       1 <0>         0.1300
      8 N2         15.6370    3.1137   15.6282 N.am      1 <0>        -0.6100
      9 C6         14.3068    2.8331   15.0825 C.3       1 <0>         0.0600
     10 C7         15.9700    4.3719   15.9786 C.2       1 <0>         0.5700
     11 O1         17.1275    4.7372   15.9055 O.2       1 <0>        -0.5000
     12 C8         14.9301    5.3057   16.4507 C.ar      1 <0>        -0.1600
     13 C9         14.6898    6.4994   15.7624 C.ar      1 <0>        -0.0200
     14 C10        13.7211    7.3618   16.2101 C.ar      1 <0>        -0.1500
     15 C11        12.9683    7.0686   17.3441 C.ar      1 <0>         0.1900
     16 C12        13.2080    5.8769   18.0308 C.ar      1 <0>        -0.1400
     17 C13        14.1771    5.0043   17.5908 C.ar      1 <0>         0.0500
     18 Cl1        14.4666    3.5257   18.4531 Cl        1 <0>        -0.0300
     19 N3         12.0618    8.0929   17.5971 N.am      1 <0>        -0.6600
     20 C14        12.1394    9.0802   16.6895 C.2       1 <0>         0.5300
     21 O2         11.4681   10.0899   16.6646 O.2       1 <0>        -0.4800
     22 C15        13.2267    8.6992   15.7074 C.3       1 <0>        -0.1100
     23 C16        17.5356    2.3436   16.9677 C.3       1 <0>        -0.1600
     24 C17        18.5934    1.2441   17.0845 C.3       1 <0>        -0.0100
     25 H2         20.5998   -1.9383   16.3786 H         1 <0>         0.1100
     26 H3         19.2279   -1.1453   17.1890 H         1 <0>         0.0800
     27 H4         19.1610   -1.4716   15.4406 H         1 <0>         0.0800
     28 H5         21.0209    0.1260   15.0712 H         1 <0>         0.1300
     29 H6         21.0878    0.4524   16.8198 H         1 <0>         0.1300
     30 H7         18.0137   -0.1445   14.9465 H         1 <0>         0.1300
     31 H8         19.0983    0.7024   13.8181 H         1 <0>         0.1400
     32 H9         16.7922    1.6066   13.6869 H         1 <0>         0.1200
     33 H10        17.9270    2.8366   14.2944 H         1 <0>         0.0900
     34 H11        16.0766    1.0937   15.9868 H         1 <0>         0.1200
     35 H12        13.7313    3.7575   15.0345 H         1 <0>         0.0700
     36 H13        14.4059    2.4144   14.0808 H         1 <0>         0.0700
     37 H14        13.7935    2.1184   15.7259 H         1 <0>         0.0900
     38 H15        15.2648    6.7413   14.8808 H         1 <0>         0.1500
     39 H16        12.6303    5.6388   18.9117 H         1 <0>         0.1500
     40 H17        11.4417    8.0929   18.3430 H         1 <0>         0.4200
     41 H18        12.8168    8.6019   14.7023 H         1 <0>         0.1300
     42 H19        14.0301    9.4359   15.7218 H         1 <0>         0.1300
     43 H20        18.0246    3.3026   16.7965 H         1 <0>         0.0900
     44 H21        16.9552    2.3898   17.8894 H         1 <0>         0.1200
     45 H22        18.1033    0.2858   17.2561 H         1 <0>         0.1300
     46 H23        19.2570    1.4670   17.9200 H         1 <0>         0.1400
@<TRIPOS>BOND
     1    1    2 1
     2    1   25 1
     3    1   26 1
     4    1   27 1
     5    2    3 1
     6    2   28 1
     7    2   29 1
     8    3    4 1
     9    3   24 1
    10    3    5 1
    11    5    6 1
    12    5   30 1
    13    5   31 1
    14    6    7 1
    15    6   32 1
    16    6   33 1
    17    7    8 1
    18    7   23 1
    19    7   34 1
    20    8    9 1
    21    8   10 am
    22    9   35 1
    23    9   36 1
    24    9   37 1
    25   10   11 2
    26   10   12 1
    27   12   17 ar
    28   12   13 ar
    29   13   14 ar
    30   13   38 1
    31   14   22 1
    32   14   15 ar
    33   15   16 ar
    34   15   19 1
    35   16   17 ar
    36   16   39 1
    37   17   18 1
    38   19   20 am
    39   19   40 1
    40   20   21 2
    41   20   22 1
    42   22   41 1
    43   22   42 1
    44   23   24 1
    45   23   43 1
    46   23   44 1
    47   24   45 1
    48   24   46 1
##########                 Name:            smyd3_137
##########          Protonation:                 none
##########               SMILES:   CN1CCC(CO)(NC(=O)C2=CC3=C(C=C2Cl)NC(=O)C3)CC1
##########            Long Name:   NO_LONG_NAME
##########          FlexRecCode: 1
##########               Number:                  355
##########   Ligand Source File: /proj/zinc22/users/x_andlu/OGG1/revisions/docking/targets/smyd3/db2gen/split_par
##########                 Rank:                    1
##########               Setnum:                   23
##########             Matchnum:                    5
##########                Cloud:                    1
##########        Electrostatic:           -16.542580
##########                 Gist:             0.000000
##########        Van der Waals:           -31.400715
##########  Ligand Polar Desolv:             5.291116
########## Ligand Apolar Desolv:            -0.574246
##########      Internal Energy:             0.000000
##########      Receptor Energy:             0.000000
########## Receptor Desolvation:             0.000000
########## Receptor Hydrophobic:             0.000000
##########         Total Energy:           -43.226425
##########        Ligand Charge:             0.000000
##########            Arbitrary:    +999.9990
##########        Ligand Energy:             0.000000

@<TRIPOS>MOLECULE
smyd3_137      none
   43    45     0     0     0
SMALL
USER_CHARGES

@<TRIPOS>ATOM
      1 C1         16.9432   -0.2286   18.0963 C.3       1 <0>         0.0200
      2 N1         17.5288    0.6762   17.0981 N.3       1 <0>        -0.5400
      3 C2         16.5072    1.1537   16.1573 C.3       1 <0>         0.0500
      4 C3         17.1748    1.9729   15.0504 C.3       1 <0>        -0.1200
      5 C4         17.9138    3.1594   15.6753 C.3       1 <0>         0.1900
      6 C5         18.6335    3.9495   14.5803 C.3       1 <0>         0.0600
      7 O1         19.3224    5.0560   15.1658 O.3       1 <0>        -0.5700
      8 N2         16.9535    4.0308   16.3569 N.am      1 <0>        -0.7100
      9 C6         15.9509    4.6028   15.6612 C.2       1 <0>         0.5700
     10 O2         15.8435    4.3956   14.4679 O.2       1 <0>        -0.5100
     11 C7         14.9838    5.4802   16.3476 C.ar      1 <0>        -0.1500
     12 C8         14.8451    6.8166   15.9584 C.ar      1 <0>        -0.0200
     13 C9         13.9387    7.6232   16.5993 C.ar      1 <0>        -0.1500
     14 C10        13.1575    7.1354   17.6437 C.ar      1 <0>         0.1900
     15 C11        13.3002    5.8032   18.0358 C.ar      1 <0>        -0.1400
     16 C12        14.2025    4.9836   17.3965 C.ar      1 <0>         0.0500
     17 Cl1        14.3712    3.3286   17.8930 Cl        1 <0>        -0.0100
     18 N3         12.3260    8.1386   18.1305 N.am      1 <0>        -0.6600
     19 C13        12.4895    9.3007   17.4768 C.2       1 <0>         0.5300
     20 O3         11.8976   10.3372   17.6915 O.2       1 <0>        -0.4900
     21 C14        13.5516    9.0738   16.4221 C.3       1 <0>        -0.1100
     22 C15        18.9382    2.6370   16.6864 C.3       1 <0>        -0.1300
     23 C16        18.2198    1.7983   17.7459 C.3       1 <0>         0.0600
     24 H1         16.4376   -1.0505   17.5894 H         1 <0>         0.0700
     25 H2         17.7328   -0.6258   18.7342 H         1 <0>         0.0700
     26 H3         16.2248    0.3192   18.7060 H         1 <0>         0.0200
     27 H4         15.9919    0.3001   15.7169 H         1 <0>         0.0800
     28 H5         15.7882    1.7779   16.6878 H         1 <0>         0.0300
     29 H6         17.8840    1.3455   14.5105 H         1 <0>         0.0900
     30 H7         16.4147    2.3402   14.3607 H         1 <0>         0.0800
     31 H8         19.3499    3.3012   14.0757 H         1 <0>         0.0700
     32 H9         17.9041    4.3165   13.8582 H         1 <0>         0.0500
     33 H10        18.7458    5.6760   15.6327 H         1 <0>         0.3800
     34 H11        17.0394    4.1962   17.3088 H         1 <0>         0.4000
     35 H12        15.4465    7.2113   15.1529 H         1 <0>         0.1400
     36 H13        12.6995    5.4137   18.8444 H         1 <0>         0.1500
     37 H14        11.6988    8.0131   18.8599 H         1 <0>         0.4200
     38 H15        13.1427    9.2412   15.4257 H         1 <0>         0.1300
     39 H16        14.4085    9.7243   16.5967 H         1 <0>         0.1300
     40 H17        19.4381    3.4785   17.1659 H         1 <0>         0.1000
     41 H18        19.6752    2.0201   16.1722 H         1 <0>         0.0800
     42 H19        17.4927    2.4193   18.2691 H         1 <0>         0.0300
     43 H20        18.9484    1.4130   18.4593 H         1 <0>         0.0800
@<TRIPOS>BOND
     1    1    2 1
     2    1   24 1
     3    1   25 1
     4    1   26 1
     5    2   23 1
     6    2    3 1
     7    3    4 1
     8    3   27 1
     9    3   28 1
    10    4    5 1
    11    4   29 1
    12    4   30 1
    13    5    6 1
    14    5    8 1
    15    5   22 1
    16    6    7 1
    17    6   31 1
    18    6   32 1
    19    7   33 1
    20    8    9 am
    21    8   34 1
    22    9   10 2
    23    9   11 1
    24   11   16 ar
    25   11   12 ar
    26   12   13 ar
    27   12   35 1
    28   13   21 1
    29   13   14 ar
    30   14   15 ar
    31   14   18 1
    32   15   16 ar
    33   15   36 1
    34   16   17 1
    35   18   19 am
    36   18   37 1
    37   19   20 2
    38   19   21 1
    39   21   38 1
    40   21   39 1
    41   22   23 1
    42   22   40 1
    43   22   41 1
    44   23   42 1
    45   23   43 1
##########                 Name:            smyd3_138
##########          Protonation:                 none
##########               SMILES:   CN1CCC(NC(=O)C2=CC3=C(C=C2Cl)NC(=O)C3)C(C#N)C1
##########            Long Name:   NO_LONG_NAME
##########          FlexRecCode: 1
##########               Number:                  359
##########   Ligand Source File: /proj/zinc22/users/x_andlu/OGG1/revisions/docking/targets/smyd3/db2gen/split_par
##########                 Rank:                    1
##########               Setnum:                    2
##########             Matchnum:                    9
##########                Cloud:                    1
##########        Electrostatic:           -16.280441
##########                 Gist:             0.000000
##########        Van der Waals:           -32.407425
##########  Ligand Polar Desolv:             6.005260
########## Ligand Apolar Desolv:            -1.307338
##########      Internal Energy:             0.000000
##########      Receptor Energy:             0.000000
########## Receptor Desolvation:             0.000000
########## Receptor Hydrophobic:             0.000000
##########         Total Energy:           -43.989944
##########        Ligand Charge:             0.000000
##########            Arbitrary:    +999.9990
##########        Ligand Energy:             0.000000

@<TRIPOS>MOLECULE
smyd3_138      none
   40    42     0     0     0
SMALL
USER_CHARGES

@<TRIPOS>ATOM
      1 C1         21.7497    1.1020   15.5020 C.3       1 <0>         0.0300
      2 N1         20.6395    1.9696   15.9173 N.3       1 <0>        -0.5500
      3 C2         19.6163    1.2047   16.6416 C.3       1 <0>         0.0600
      4 C3         18.5510    2.1606   17.1833 C.3       1 <0>        -0.1300
      5 C4         17.9145    2.9229   16.0167 C.3       1 <0>         0.1600
      6 N2         16.9350    3.8821   16.5333 N.am      1 <0>        -0.7300
      7 C5         15.8636    4.2184   15.7882 C.2       1 <0>         0.5600
      8 O1         15.7098    3.7259   14.6871 O.2       1 <0>        -0.5100
      9 C6         14.8773    5.1843   16.3082 C.ar      1 <0>        -0.1600
     10 C7         14.6327    6.3795   15.6237 C.ar      1 <0>        -0.0200
     11 C8         13.7093    7.2688   16.1125 C.ar      1 <0>        -0.1500
     12 C9         13.0149    7.0067   17.2906 C.ar      1 <0>         0.1900
     13 C10        13.2631    5.8166   17.9767 C.ar      1 <0>        -0.1400
     14 C11        14.1835    4.9146   17.4929 C.ar      1 <0>         0.0500
     15 Cl1        14.4839    3.4380   18.3547 Cl        1 <0>        -0.0100
     16 N3         12.1454    8.0535   17.5787 N.am      1 <0>        -0.6600
     17 C12        12.2001    9.0317   16.6595 C.2       1 <0>         0.5300
     18 O2         11.5537   10.0579   16.6605 O.2       1 <0>        -0.4900
     19 C13        13.2203    8.6129   15.6224 C.3       1 <0>        -0.1200
     20 C14        19.0086    3.6714   15.2503 C.3       1 <0>         0.0000
     21 C15        19.6426    4.6595   16.1385 C.1       1 <0>         0.2100
     22 N4         20.1317    5.4219   16.8239 N.1       1 <0>        -0.4200
     23 C16        20.0607    2.6718   14.7647 C.3       1 <0>         0.0600
     24 H1         22.1600    0.5940   16.3749 H         1 <0>         0.0700
     25 H2         21.3857    0.3624   14.7889 H         1 <0>         0.0700
     26 H3         22.5273    1.7059   15.0343 H         1 <0>         0.0300
     27 H4         19.1511    0.4885   15.9642 H         1 <0>         0.0400
     28 H5         20.0809    0.6711   17.4708 H         1 <0>         0.0800
     29 H6         17.7836    1.5909   17.7074 H         1 <0>         0.0800
     30 H7         19.0132    2.8685   17.8713 H         1 <0>         0.0700
     31 H8         17.4188    2.2186   15.3488 H         1 <0>         0.1100
     32 H9         17.0577    4.2750   17.4116 H         1 <0>         0.4000
     33 H10        15.1660    6.5994   14.7108 H         1 <0>         0.1400
     34 H11        12.7302    5.6023   18.8913 H         1 <0>         0.1500
     35 H12        11.5651    8.0749   18.3558 H         1 <0>         0.4200
     36 H13        12.7519    8.5153   14.6431 H         1 <0>         0.1300
     37 H14        14.0411    9.3291   15.5827 H         1 <0>         0.1300
     38 H15        18.5686    4.1818   14.3935 H         1 <0>         0.1300
     39 H16        19.5933    1.9488   14.0962 H         1 <0>         0.0600
     40 H17        20.8481    3.2038   14.2307 H         1 <0>         0.0900
@<TRIPOS>BOND
     1    1    2 1
     2    1   24 1
     3    1   25 1
     4    1   26 1
     5    2   23 1
     6    2    3 1
     7    3    4 1
     8    3   27 1
     9    3   28 1
    10    4    5 1
    11    4   29 1
    12    4   30 1
    13    5    6 1
    14    5   20 1
    15    5   31 1
    16    6    7 am
    17    6   32 1
    18    7    8 2
    19    7    9 1
    20    9   14 ar
    21    9   10 ar
    22   10   11 ar
    23   10   33 1
    24   11   19 1
    25   11   12 ar
    26   12   13 ar
    27   12   16 1
    28   13   14 ar
    29   13   34 1
    30   14   15 1
    31   16   17 am
    32   16   35 1
    33   17   18 2
    34   17   19 1
    35   19   36 1
    36   19   37 1
    37   20   21 1
    38   20   23 1
    39   20   38 1
    40   21   22 3
    41   23   39 1
    42   23   40 1
##########                 Name:            smyd3_139
##########          Protonation:                 none
##########               SMILES:   CC1C[N@@H+](C)C(C)CC1NC(=O)C1=CC2=C(C=C1Cl)NC(=O)C2
##########            Long Name:   NO_LONG_NAME
##########          FlexRecCode: 1
##########               Number:                  361
##########   Ligand Source File: /proj/zinc22/users/x_andlu/OGG1/revisions/docking/targets/smyd3/db2gen/split_par
##########                 Rank:                    1
##########               Setnum:                    3
##########             Matchnum:                   19
##########                Cloud:                    1
##########        Electrostatic:           -23.372093
##########                 Gist:             0.000000
##########        Van der Waals:           -28.718193
##########  Ligand Polar Desolv:            10.615859
########## Ligand Apolar Desolv:            -2.166531
##########      Internal Energy:             0.000000
##########      Receptor Energy:             0.000000
########## Receptor Desolvation:             0.000000
########## Receptor Hydrophobic:             0.000000
##########         Total Energy:           -43.640957
##########        Ligand Charge:             1.000000
##########            Arbitrary:    +999.9990
##########        Ligand Energy:             0.000000

@<TRIPOS>MOLECULE
smyd3_139      none
   46    48     0     0     0
SMALL
USER_CHARGES

@<TRIPOS>ATOM
      1 C1         18.6596    2.2074   17.5266 C.3       1 <0>        -0.1700
      2 C2         18.6883    2.3079   16.0002 C.3       1 <0>        -0.1200
      3 C3         19.9112    1.5621   15.4618 C.3       1 <0>         0.0000
      4 N1         21.1340    2.1583   16.0128 N.4       1 <0>        -0.3900
      5 H1         21.0934    2.1356   17.0208 H         1 <0>         0.4200
      6 C4         22.2993    1.3907   15.5538 C.3       1 <0>        -0.0500
      7 C5         21.2574    3.5493   15.5608 C.3       1 <0>         0.0300
      8 C6         22.5733    4.1370   16.0744 C.3       1 <0>        -0.1800
      9 C7         20.0862    4.3715   16.1029 C.3       1 <0>        -0.1600
     10 C8         18.7718    3.7800   15.5862 C.3       1 <0>         0.1400
     11 N2         17.6434    4.5156   16.1622 N.am      1 <0>        -0.7300
     12 C9         16.4898    4.6267   15.4743 C.2       1 <0>         0.5700
     13 O1         16.3854    4.1164   14.3756 O.2       1 <0>        -0.5000
     14 C10        15.3536    5.3676   16.0544 C.ar      1 <0>        -0.1700
     15 C11        15.2168    6.7407   15.8250 C.ar      1 <0>        -0.0200
     16 C12        14.1532    7.4197   16.3639 C.ar      1 <0>        -0.1500
     17 C13        13.2081    6.7650   17.1493 C.ar      1 <0>         0.2000
     18 C14        13.3481    5.3958   17.3833 C.ar      1 <0>        -0.1400
     19 C15        14.4078    4.7033   16.8427 C.ar      1 <0>         0.0600
     20 Cl1        14.5707    3.0007   17.1396 Cl        1 <0>        -0.0100
     21 N3         12.2369    7.6627   17.5806 N.am      1 <0>        -0.6600
     22 C16        12.4590    8.9100   17.1341 C.2       1 <0>         0.5300
     23 O2         11.7749    9.8866   17.3554 O.2       1 <0>        -0.4800
     24 C17        13.7236    8.8679   16.3028 C.3       1 <0>        -0.1100
     25 H2         18.6002    1.1594   17.8207 H         1 <0>         0.0800
     26 H3         19.5679    2.6489   17.9369 H         1 <0>         0.0800
     27 H4         17.7905    2.7420   17.9097 H         1 <0>         0.0600
     28 H5         17.7814    1.8648   15.5885 H         1 <0>         0.1300
     29 H6         19.9304    1.6342   14.3745 H         1 <0>         0.1300
     30 H7         19.8545    0.5138   15.7552 H         1 <0>         0.1400
     31 H8         23.2088    1.8318   15.9619 H         1 <0>         0.1300
     32 H9         22.2117    0.3588   15.8940 H         1 <0>         0.1200
     33 H10        22.3423    1.4118   14.4649 H         1 <0>         0.1200
     34 H11        21.2476    3.5786   14.4712 H         1 <0>         0.1400
     35 H12        22.6654    5.1700   15.7389 H         1 <0>         0.0800
     36 H13        22.5842    4.1065   17.1638 H         1 <0>         0.0900
     37 H14        23.4080    3.5533   15.6860 H         1 <0>         0.1100
     38 H15        20.1787    5.4037   15.7647 H         1 <0>         0.1200
     39 H16        20.0949    4.3428   17.1925 H         1 <0>         0.0900
     40 H17        18.7400    3.8564   14.4993 H         1 <0>         0.1100
     41 H18        17.7253    4.9192   17.0405 H         1 <0>         0.4000
     42 H19        15.9440    7.2640   15.2220 H         1 <0>         0.1400
     43 H20        12.6212    4.8774   17.9910 H         1 <0>         0.1500
     44 H21        11.4843    7.4157   18.1405 H         1 <0>         0.4200
     45 H22        13.5147    9.1615   15.2741 H         1 <0>         0.1300
     46 H23        14.4873    9.5138   16.7359 H         1 <0>         0.1300
@<TRIPOS>BOND
     1    1    2 1
     2    1   25 1
     3    1   26 1
     4    1   27 1
     5    2   10 1
     6    2    3 1
     7    2   28 1
     8    3    4 1
     9    3   29 1
    10    3   30 1
    11    4    5 1
    12    4    6 1
    13    4    7 1
    14    6   31 1
    15    6   32 1
    16    6   33 1
    17    7    8 1
    18    7    9 1
    19    7   34 1
    20    8   35 1
    21    8   36 1
    22    8   37 1
    23    9   10 1
    24    9   38 1
    25    9   39 1
    26   10   11 1
    27   10   40 1
    28   11   12 am
    29   11   41 1
    30   12   13 2
    31   12   14 1
    32   14   19 ar
    33   14   15 ar
    34   15   16 ar
    35   15   42 1
    36   16   24 1
    37   16   17 ar
    38   17   18 ar
    39   17   21 1
    40   18   19 ar
    41   18   43 1
    42   19   20 1
    43   21   22 am
    44   21   44 1
    45   22   23 2
    46   22   24 1
    47   24   45 1
    48   24   46 1
##########                 Name:            smyd3_140
##########          Protonation:                 none
##########               SMILES:   C[N@H+]1CCC(NC(=O)C2=CC3=C(C=C2Cl)NC(=O)C3)C(C)(C)C1
##########            Long Name:   NO_LONG_NAME
##########          FlexRecCode: 1
##########               Number:                  365
##########   Ligand Source File: /proj/zinc22/users/x_andlu/OGG1/revisions/docking/targets/smyd3/db2gen/split_par
##########                 Rank:                    1
##########               Setnum:                    8
##########             Matchnum:                   10
##########                Cloud:                    1
##########        Electrostatic:           -23.225327
##########                 Gist:             0.000000
##########        Van der Waals:           -33.508759
##########  Ligand Polar Desolv:             9.452784
########## Ligand Apolar Desolv:            -2.324728
##########      Internal Energy:             0.000000
##########      Receptor Energy:             0.000000
########## Receptor Desolvation:             0.000000
########## Receptor Hydrophobic:             0.000000
##########         Total Energy:           -49.606030
##########        Ligand Charge:             1.000000
##########            Arbitrary:    +999.9990
##########        Ligand Energy:             0.000000

@<TRIPOS>MOLECULE
smyd3_140      none
   46    48     0     0     0
SMALL
USER_CHARGES

@<TRIPOS>ATOM
      1 C1         20.7423   -0.3458   15.5406 C.3       1 <0>        -0.0500
      2 N1         19.7807    0.6481   16.0361 N.4       1 <0>        -0.3900
      3 H1         19.7088    0.5736   17.0398 H         1 <0>         0.4200
      4 C2         20.2429    1.9945   15.6787 C.3       1 <0>        -0.0000
      5 C3         19.2865    3.0376   16.2607 C.3       1 <0>        -0.1600
      6 C4         17.8836    2.8098   15.6907 C.3       1 <0>         0.1500
      7 N2         16.9470    3.7567   16.3013 N.am      1 <0>        -0.7300
      8 C5         15.8718    4.1821   15.6092 C.2       1 <0>         0.5700
      9 O1         15.6789    3.7801   14.4780 O.2       1 <0>        -0.5000
     10 C6         14.9287    5.1356   16.2240 C.ar      1 <0>        -0.1700
     11 C7         14.7044    6.3841   15.6345 C.ar      1 <0>        -0.0200
     12 C8         13.8250    7.2638   16.2136 C.ar      1 <0>        -0.1500
     13 C9         13.1477    6.9343   17.3848 C.ar      1 <0>         0.2000
     14 C10        13.3719    5.6882   17.9731 C.ar      1 <0>        -0.1400
     15 C11        14.2518    4.7978   17.4008 C.ar      1 <0>         0.0600
     16 Cl1        14.5218    3.2510   18.1412 Cl        1 <0>        -0.0100
     17 N3         12.3192    7.9825   17.7717 N.am      1 <0>        -0.6600
     18 C12        12.3861    9.0256   16.9278 C.2       1 <0>         0.5300
     19 O2         11.7738   10.0682   17.0217 O.2       1 <0>        -0.4800
     20 C13        13.3694    8.6555   15.8379 C.3       1 <0>        -0.1100
     21 C14        17.4417    1.3777   16.0054 C.3       1 <0>        -0.0900
     22 C15        17.3490    1.1930   17.5214 C.3       1 <0>        -0.1700
     23 C16        16.0736    1.1144   15.3732 C.3       1 <0>        -0.1500
     24 C17        18.4665    0.3962   15.4329 C.3       1 <0>         0.0000
     25 H2         20.8208   -0.2664   14.4563 H         1 <0>         0.1300
     26 H3         21.7184   -0.1625   15.9899 H         1 <0>         0.1200
     27 H4         20.4014   -1.3460   15.8078 H         1 <0>         0.1200
     28 H5         20.2703    2.0926   14.5935 H         1 <0>         0.1300
     29 H6         21.2430    2.1540   16.0822 H         1 <0>         0.1400
     30 H7         19.6306    4.0365   15.9926 H         1 <0>         0.1200
     31 H8         19.2588    2.9404   17.3460 H         1 <0>         0.0900
     32 H9         17.9001    2.9584   14.6111 H         1 <0>         0.1100
     33 H10        17.1010    4.0775   17.2038 H         1 <0>         0.4000
     34 H11        15.2220    6.6549   14.7262 H         1 <0>         0.1400
     35 H12        12.8489    5.4198   18.8792 H         1 <0>         0.1500
     36 H13        11.7565    7.9624   18.5616 H         1 <0>         0.4200
     37 H14        14.2129    9.3458   15.8343 H         1 <0>         0.1300
     38 H15        12.8773    8.6470   14.8654 H         1 <0>         0.1300
     39 H16        17.0345    0.1735   17.7446 H         1 <0>         0.0800
     40 H17        18.3247    1.3787   17.9704 H         1 <0>         0.0800
     41 H18        16.6217    1.8951   17.9291 H         1 <0>         0.0600
     42 H19        15.7598    0.0950   15.5974 H         1 <0>         0.0700
     43 H20        15.3449    1.8164   15.7784 H         1 <0>         0.0700
     44 H21        16.1415    1.2443   14.2930 H         1 <0>         0.0800
     45 H22        18.5316    0.5284   14.3529 H         1 <0>         0.1300
     46 H23        18.1547   -0.6243   15.6555 H         1 <0>         0.1400
@<TRIPOS>BOND
     1    1    2 1
     2    1   25 1
     3    1   26 1
     4    1   27 1
     5    2    3 1
     6    2   24 1
     7    2    4 1
     8    4    5 1
     9    4   28 1
    10    4   29 1
    11    5    6 1
    12    5   30 1
    13    5   31 1
    14    6    7 1
    15    6   21 1
    16    6   32 1
    17    7    8 am
    18    7   33 1
    19    8    9 2
    20    8   10 1
    21   10   15 ar
    22   10   11 ar
    23   11   12 ar
    24   11   34 1
    25   12   20 1
    26   12   13 ar
    27   13   14 ar
    28   13   17 1
    29   14   15 ar
    30   14   35 1
    31   15   16 1
    32   17   18 am
    33   17   36 1
    34   18   19 2
    35   18   20 1
    36   20   37 1
    37   20   38 1
    38   21   22 1
    39   21   23 1
    40   21   24 1
    41   22   39 1
    42   22   40 1
    43   22   41 1
    44   23   42 1
    45   23   43 1
    46   23   44 1
    47   24   45 1
    48   24   46 1
##########                 Name:            smyd3_141
##########          Protonation:                 none
##########               SMILES:   CC[N@H+]1CCC(NC(=O)C2=CC3=C(C=C2Cl)NC(=O)C3)C(C)C1
##########            Long Name:   NO_LONG_NAME
##########          FlexRecCode: 1
##########               Number:                  368
##########   Ligand Source File: /proj/zinc22/users/x_andlu/OGG1/revisions/docking/targets/smyd3/db2gen/split_par
##########                 Rank:                    1
##########               Setnum:                   22
##########             Matchnum:                    1
##########                Cloud:                    1
##########        Electrostatic:           -25.394184
##########                 Gist:             0.000000
##########        Van der Waals:           -29.681223
##########  Ligand Polar Desolv:             9.975147
########## Ligand Apolar Desolv:            -2.420348
##########      Internal Energy:             0.000000
##########      Receptor Energy:             0.000000
########## Receptor Desolvation:             0.000000
########## Receptor Hydrophobic:             0.000000
##########         Total Energy:           -47.520611
##########        Ligand Charge:             1.000000
##########            Arbitrary:    +999.9990
##########        Ligand Energy:             0.000000

@<TRIPOS>MOLECULE
smyd3_141      none
   46    48     0     0     0
SMALL
USER_CHARGES

@<TRIPOS>ATOM
      1 C1         16.4485    0.5724   18.4861 C.3       1 <0>        -0.1900
      2 C2         17.4430   -0.1472   17.5728 C.3       1 <0>        -0.0100
      3 N1         17.9388    0.7888   16.5549 N.4       1 <0>        -0.3800
      4 H1         18.5946    0.3134   15.9532 H         1 <0>         0.4200
      5 C3         16.8104    1.2799   15.7550 C.3       1 <0>        -0.0100
      6 C4         17.3285    2.1932   14.6419 C.3       1 <0>        -0.1600
      7 C5         18.0687    3.3798   15.2657 C.3       1 <0>         0.1400
      8 N2         17.1355    4.1700   16.0725 N.am      1 <0>        -0.7400
      9 C6         16.0550    4.7325   15.4955 C.2       1 <0>         0.5700
     10 O1         15.8549    4.5841   14.3053 O.2       1 <0>        -0.5000
     11 C7         15.1153    5.5281   16.3077 C.ar      1 <0>        -0.1700
     12 C8         14.8816    6.8726   16.0002 C.ar      1 <0>        -0.0200
     13 C9         14.0053    7.6042   16.7614 C.ar      1 <0>        -0.1500
     14 C10        13.3402    7.0294   17.8405 C.ar      1 <0>         0.2000
     15 C11        13.5735    5.6873   18.1479 C.ar      1 <0>        -0.1400
     16 C12        14.4465    4.9423   17.3880 C.ar      1 <0>         0.0600
     17 Cl1        14.7230    3.2727   17.7748 Cl        1 <0>        -0.0100
     18 N3         12.5127    7.9666   18.4504 N.am      1 <0>        -0.6600
     19 C13        12.5688    9.1662   17.8482 C.2       1 <0>         0.5300
     20 O2         11.9538   10.1615   18.1673 O.2       1 <0>        -0.4800
     21 C14        13.5429    9.0421   16.6960 C.3       1 <0>        -0.1100
     22 C15        19.1973    2.8534   16.1570 C.3       1 <0>        -0.1200
     23 C16        20.2094    2.0887   15.3015 C.3       1 <0>        -0.1700
     24 C17        18.6099    1.9157   17.2140 C.3       1 <0>        -0.0100
     25 H2         16.0806   -0.1222   19.2413 H         1 <0>         0.1100
     26 H3         16.9446    1.4109   18.9746 H         1 <0>         0.0800
     27 H4         15.6115    0.9409   17.8929 H         1 <0>         0.0800
     28 H5         16.9467   -0.9857   17.0843 H         1 <0>         0.1300
     29 H6         18.2799   -0.5157   18.1660 H         1 <0>         0.1300
     30 H7         16.2826    0.4341   15.3143 H         1 <0>         0.1300
     31 H8         16.1280    1.8392   16.3950 H         1 <0>         0.1300
     32 H9         18.0108    1.6347   14.0009 H         1 <0>         0.1000
     33 H10        16.4890    2.5576   14.0497 H         1 <0>         0.1200
     34 H11        18.4883    4.0034   14.4764 H         1 <0>         0.1200
     35 H12        17.2951    4.2885   17.0219 H         1 <0>         0.3900
     36 H13        15.3894    7.3333   15.1657 H         1 <0>         0.1300
     37 H14        13.0632    5.2304   18.9829 H         1 <0>         0.1500
     38 H15        11.9583    7.7759   19.2231 H         1 <0>         0.4200
     39 H16        14.3848    9.7209   16.8324 H         1 <0>         0.1300
     40 H17        13.0435    9.2401   15.7476 H         1 <0>         0.1300
     41 H18        19.6935    3.6902   16.6483 H         1 <0>         0.1300
     42 H19        21.0125    1.7143   15.9364 H         1 <0>         0.0600
     43 H20        19.7123    1.2510   14.8124 H         1 <0>         0.0900
     44 H21        20.6245    2.7561   14.5463 H         1 <0>         0.0800
     45 H22        19.4108    1.5392   17.8504 H         1 <0>         0.1400
     46 H23        17.8888    2.4613   17.8226 H         1 <0>         0.1200
@<TRIPOS>BOND
     1    1    2 1
     2    1   25 1
     3    1   26 1
     4    1   27 1
     5    2    3 1
     6    2   28 1
     7    2   29 1
     8    3    4 1
     9    3   24 1
    10    3    5 1
    11    5    6 1
    12    5   30 1
    13    5   31 1
    14    6    7 1
    15    6   32 1
    16    6   33 1
    17    7    8 1
    18    7   22 1
    19    7   34 1
    20    8    9 am
    21    8   35 1
    22    9   10 2
    23    9   11 1
    24   11   16 ar
    25   11   12 ar
    26   12   13 ar
    27   12   36 1
    28   13   21 1
    29   13   14 ar
    30   14   15 ar
    31   14   18 1
    32   15   16 ar
    33   15   37 1
    34   16   17 1
    35   18   19 am
    36   18   38 1
    37   19   20 2
    38   19   21 1
    39   21   39 1
    40   21   40 1
    41   22   23 1
    42   22   24 1
    43   22   41 1
    44   23   42 1
    45   23   43 1
    46   23   44 1
    47   24   45 1
    48   24   46 1
##########                 Name:            smyd3_142
##########          Protonation:                 none
##########               SMILES:   C[NH+]1CC2CCC(C1)C2NC(=O)C1=CC2=C(C=C1Cl)NC(=O)C2
##########            Long Name:   NO_LONG_NAME
##########          FlexRecCode: 1
##########               Number:                  372
##########   Ligand Source File: /proj/zinc22/users/x_andlu/OGG1/revisions/docking/targets/smyd3/db2gen/split_par
##########                 Rank:                    1
##########               Setnum:                    8
##########             Matchnum:                    1
##########                Cloud:                    1
##########        Electrostatic:           -18.720015
##########                 Gist:             0.000000
##########        Van der Waals:           -31.424181
##########  Ligand Polar Desolv:            10.330400
########## Ligand Apolar Desolv:            -2.665910
##########      Internal Energy:             0.000000
##########      Receptor Energy:             0.000000
########## Receptor Desolvation:             0.000000
########## Receptor Hydrophobic:             0.000000
##########         Total Energy:           -42.479706
##########        Ligand Charge:             1.000000
##########            Arbitrary:    +999.9990
##########        Ligand Energy:             0.000000

@<TRIPOS>MOLECULE
smyd3_142      none
   44    47     0     0     0
SMALL
USER_CHARGES

@<TRIPOS>ATOM
      1 C1         17.0923    0.1630   18.3064 C.3       1 <0>        -0.0500
      2 N1         17.6743    0.6629   17.0536 N.4       1 <0>        -0.3800
      3 H1         18.2228   -0.0694   16.6280 H         1 <0>         0.4200
      4 C2         16.5926    1.0476   16.1397 C.3       1 <0>        -0.0100
      5 C3         17.2026    1.5932   14.8356 C.3       1 <0>        -0.1100
      6 C4         18.3530    0.6381   14.4357 C.3       1 <0>        -0.1400
      7 C5         19.5962    1.1219   15.2049 C.3       1 <0>        -0.1500
      8 C6         19.1377    2.3455   16.0337 C.3       1 <0>        -0.1200
      9 C7         18.5469    1.8073   17.3497 C.3       1 <0>        -0.0100
     10 C8         17.9419    2.9054   15.2156 C.3       1 <0>         0.1400
     11 N2         17.0946    3.7684   16.0423 N.am      1 <0>        -0.7400
     12 C9         15.9572    4.2826   15.5338 C.2       1 <0>         0.5700
     13 O1         15.6344    4.0303   14.3889 O.2       1 <0>        -0.4900
     14 C10        15.1070    5.1567   16.3642 C.ar      1 <0>        -0.1700
     15 C11        14.8429    6.4704   15.9630 C.ar      1 <0>        -0.0200
     16 C12        14.0507    7.2755   16.7420 C.ar      1 <0>        -0.1500
     17 C13        13.5014    6.8054   17.9321 C.ar      1 <0>         0.2000
     18 C14        13.7651    5.4943   18.3325 C.ar      1 <0>        -0.1400
     19 C15        14.5542    4.6761   17.5562 C.ar      1 <0>         0.0600
     20 Cl1        14.8691    3.0453   18.0606 Cl        1 <0>        -0.0100
     21 N3         12.7424    7.8017   18.5372 N.am      1 <0>        -0.6600
     22 C16        12.7359    8.9421   17.8273 C.2       1 <0>         0.5300
     23 O2         12.1590    9.9685   18.1183 O.2       1 <0>        -0.4800
     24 C17        13.5847    8.7062   16.5961 C.3       1 <0>        -0.1100
     25 H2         16.4984    0.9502   18.7706 H         1 <0>         0.1300
     26 H3         16.4551   -0.6955   18.0938 H         1 <0>         0.1300
     27 H4         17.8916   -0.1368   18.9841 H         1 <0>         0.1200
     28 H5         15.9792    1.8189   16.6055 H         1 <0>         0.1200
     29 H6         15.9757    0.1769   15.9169 H         1 <0>         0.1400
     30 H7         16.4706    1.7331   14.0402 H         1 <0>         0.1400
     31 H8         18.5306    0.6949   13.3618 H         1 <0>         0.1000
     32 H9         18.1095   -0.3851   14.7217 H         1 <0>         0.0800
     33 H10        20.3796    1.4145   14.5058 H         1 <0>         0.1000
     34 H11        19.9579    0.3348   15.8665 H         1 <0>         0.0800
     35 H12        19.9308    3.0783   16.1825 H         1 <0>         0.1400
     36 H13        19.3550    1.4896   18.0086 H         1 <0>         0.1300
     37 H14        17.9663    2.5913   17.8357 H         1 <0>         0.1300
     38 H15        18.2871    3.4333   14.3265 H         1 <0>         0.1200
     39 H16        17.3521    3.9697   16.9555 H         1 <0>         0.3900
     40 H17        15.2618    6.8501   15.0428 H         1 <0>         0.1300
     41 H18        13.3445    5.1187   19.2537 H         1 <0>         0.1500
     42 H19        12.2705    7.6860   19.3768 H         1 <0>         0.4200
     43 H20        14.4365    9.3861   16.5830 H         1 <0>         0.1300
     44 H21        12.9873    8.8231   15.6919 H         1 <0>         0.1300
@<TRIPOS>BOND
     1    1    2 1
     2    1   25 1
     3    1   26 1
     4    1   27 1
     5    2    3 1
     6    2    9 1
     7    2    4 1
     8    4    5 1
     9    4   28 1
    10    4   29 1
    11    5   10 1
    12    5    6 1
    13    5   30 1
    14    6    7 1
    15    6   31 1
    16    6   32 1
    17    7    8 1
    18    7   33 1
    19    7   34 1
    20    8    9 1
    21    8   10 1
    22    8   35 1
    23    9   36 1
    24    9   37 1
    25   10   11 1
    26   10   38 1
    27   11   12 am
    28   11   39 1
    29   12   13 2
    30   12   14 1
    31   14   19 ar
    32   14   15 ar
    33   15   16 ar
    34   15   40 1
    35   16   24 1
    36   16   17 ar
    37   17   18 ar
    38   17   21 1
    39   18   19 ar
    40   18   41 1
    41   19   20 1
    42   21   22 am
    43   21   42 1
    44   22   23 2
    45   22   24 1
    46   24   43 1
    47   24   44 1
##########                 Name:            smyd3_144
##########          Protonation:                 none
##########               SMILES:   C[N@@H+]1CCC(NC(=O)C2=CC3=C(C=C2Cl)NC(=O)C3)CC12CC2
##########            Long Name:   NO_LONG_NAME
##########          FlexRecCode: 1
##########               Number:                  381
##########   Ligand Source File: /proj/zinc22/users/x_andlu/OGG1/revisions/docking/targets/smyd3/db2gen/split_par
##########                 Rank:                    1
##########               Setnum:                    7
##########             Matchnum:                   13
##########                Cloud:                    1
##########        Electrostatic:           -28.361984
##########                 Gist:             0.000000
##########        Van der Waals:           -32.422359
##########  Ligand Polar Desolv:            10.231031
########## Ligand Apolar Desolv:            -2.198786
##########      Internal Energy:             0.000000
##########      Receptor Energy:             0.000000
########## Receptor Desolvation:             0.000000
########## Receptor Hydrophobic:             0.000000
##########         Total Energy:           -52.752102
##########        Ligand Charge:             1.000000
##########            Arbitrary:    +999.9990
##########        Ligand Energy:             0.000000

@<TRIPOS>MOLECULE
smyd3_144      none
   44    47     0     0     0
SMALL
USER_CHARGES

@<TRIPOS>ATOM
      1 C1         21.5271    2.8707   15.9897 C.3       1 <0>        -0.0500
      2 N1         20.7650    2.1023   14.9965 N.4       1 <0>        -0.3500
      3 H1         21.3911    1.4993   14.4843 H         1 <0>         0.4300
      4 C2         20.1027    3.0257   14.0653 C.3       1 <0>         0.0000
      5 C3         19.1446    3.9358   14.8352 C.3       1 <0>        -0.1600
      6 C4         18.0428    3.0920   15.4815 C.3       1 <0>         0.1400
      7 N2         17.1300    3.9641   16.2249 N.am      1 <0>        -0.7300
      8 C5         16.0500    4.4882   15.6120 C.2       1 <0>         0.5700
      9 O1         15.8333    4.2371   14.4421 O.2       1 <0>        -0.5000
     10 C6         15.1308    5.3663   16.3605 C.ar      1 <0>        -0.1700
     11 C7         14.9199    6.6847   15.9436 C.ar      1 <0>        -0.0200
     12 C8         14.0593    7.4921   16.6436 C.ar      1 <0>        -0.1500
     13 C9         13.3962    7.0233   17.7747 C.ar      1 <0>         0.2000
     14 C10        13.6108    5.7090   18.1939 C.ar      1 <0>        -0.1400
     15 C11        14.4679    4.8885   17.4961 C.ar      1 <0>         0.0600
     16 Cl1        14.7266    3.2559   18.0265 Cl        1 <0>        -0.0100
     17 N3         12.5908    8.0238   18.3087 N.am      1 <0>        -0.6600
     18 C12        12.6603    9.1663   17.6054 C.2       1 <0>         0.5300
     19 O2         12.0653   10.1959   17.8434 O.2       1 <0>        -0.4800
     20 C13        13.6202    8.9270   16.4592 C.3       1 <0>        -0.1100
     21 C14        18.6838    2.0833   16.4415 C.3       1 <0>        -0.1000
     22 C15        19.7487    1.2859   15.6820 C.3       1 <0>        -0.0500
     23 C16        19.3133   -0.0183   15.0132 C.3       1 <0>        -0.1500
     24 C17        20.1842   -0.0557   16.2709 C.3       1 <0>        -0.1400
     25 H2         20.8504    3.5219   16.5427 H         1 <0>         0.1200
     26 H3         22.0176    2.1853   16.6810 H         1 <0>         0.1200
     27 H4         22.2792    3.4750   15.4825 H         1 <0>         0.1300
     28 H5         19.5433    2.4544   13.3244 H         1 <0>         0.1300
     29 H6         20.8546    3.6336   13.5623 H         1 <0>         0.1400
     30 H7         18.6963    4.6542   14.1490 H         1 <0>         0.1200
     31 H8         19.6949    4.4694   15.6102 H         1 <0>         0.0900
     32 H9         17.4905    2.5588   14.7077 H         1 <0>         0.1100
     33 H10        17.3028    4.1644   17.1581 H         1 <0>         0.4000
     34 H11        15.4298    7.0648   15.0707 H         1 <0>         0.1400
     35 H12        13.1017    5.3343   19.0695 H         1 <0>         0.1500
     36 H13        12.0408    7.9095   19.0995 H         1 <0>         0.4200
     37 H14        14.4745    9.6001   16.5294 H         1 <0>         0.1300
     38 H15        13.1120    9.0512   15.5030 H         1 <0>         0.1300
     39 H16        19.1480    2.6138   17.2729 H         1 <0>         0.1000
     40 H17        17.9205    1.4043   16.8216 H         1 <0>         0.1200
     41 H18        18.2685   -0.3119   15.1155 H         1 <0>         0.1300
     42 H19        19.7851   -0.2801   14.0662 H         1 <0>         0.1200
     43 H20        21.2289   -0.3426   16.1512 H         1 <0>         0.1200
     44 H21        19.7125   -0.3743   17.2005 H         1 <0>         0.1300
@<TRIPOS>BOND
     1    1    2 1
     2    1   25 1
     3    1   26 1
     4    1   27 1
     5    2    3 1
     6    2   22 1
     7    2    4 1
     8    4    5 1
     9    4   28 1
    10    4   29 1
    11    5    6 1
    12    5   30 1
    13    5   31 1
    14    6    7 1
    15    6   21 1
    16    6   32 1
    17    7    8 am
    18    7   33 1
    19    8    9 2
    20    8   10 1
    21   10   15 ar
    22   10   11 ar
    23   11   12 ar
    24   11   34 1
    25   12   20 1
    26   12   13 ar
    27   13   14 ar
    28   13   17 1
    29   14   15 ar
    30   14   35 1
    31   15   16 1
    32   17   18 am
    33   17   36 1
    34   18   19 2
    35   18   20 1
    36   20   37 1
    37   20   38 1
    38   21   22 1
    39   21   39 1
    40   21   40 1
    41   22   24 1
    42   22   23 1
    43   23   24 1
    44   23   41 1
    45   23   42 1
    46   24   43 1
    47   24   44 1
##########                 Name:            smyd3_147
##########          Protonation:                 none
##########               SMILES:   CC(=O)N1CCC(NC(=O)C2=CC3=C(C=C2Cl)NC(=O)C3)CC1
##########            Long Name:   NO_LONG_NAME
##########          FlexRecCode: 1
##########               Number:                  389
##########   Ligand Source File: /proj/zinc22/users/x_andlu/OGG1/revisions/docking/targets/smyd3/db2gen/split_par
##########                 Rank:                    1
##########               Setnum:                    4
##########             Matchnum:                    6
##########                Cloud:                    1
##########        Electrostatic:           -17.945515
##########                 Gist:             0.000000
##########        Van der Waals:           -31.143911
##########  Ligand Polar Desolv:             7.051776
########## Ligand Apolar Desolv:            -1.451014
##########      Internal Energy:             0.000000
##########      Receptor Energy:             0.000000
########## Receptor Desolvation:             0.000000
########## Receptor Hydrophobic:             0.000000
##########         Total Energy:           -43.488663
##########        Ligand Charge:             0.000000
##########            Arbitrary:    +999.9990
##########        Ligand Energy:             0.000000

@<TRIPOS>MOLECULE
smyd3_147      none
   41    43     0     0     0
SMALL
USER_CHARGES

@<TRIPOS>ATOM
      1 C1         23.4151    3.1174   14.3426 C.3       1 <0>        -0.1800
      2 C2         22.4859    2.7533   15.4718 C.2       1 <0>         0.5100
      3 O1         22.9379    2.4559   16.5573 O.2       1 <0>        -0.5400
      4 N1         21.1523    2.7636   15.2771 N.am      1 <0>        -0.6200
      5 C3         20.5444    3.6857   14.3081 C.3       1 <0>         0.1100
      6 C4         19.4469    4.4875   15.0054 C.3       1 <0>        -0.1500
      7 C5         18.4562    3.5255   15.6651 C.3       1 <0>         0.1500
      8 N2         17.3864    4.2921   16.3088 N.am      1 <0>        -0.7200
      9 C6         16.2736    4.6078   15.6171 C.2       1 <0>         0.5600
     10 O2         16.1575    4.2563   14.4588 O.2       1 <0>        -0.5100
     11 C7         15.1965    5.3796   16.2652 C.ar      1 <0>        -0.1600
     12 C8         14.8054    6.6176   15.7448 C.ar      1 <0>        -0.0200
     13 C9         13.8024    7.3280   16.3549 C.ar      1 <0>        -0.1500
     14 C10        13.1629    6.8359   17.4897 C.ar      1 <0>         0.1900
     15 C11        13.5533    5.6002   18.0090 C.ar      1 <0>        -0.1400
     16 C12        14.5542    4.8762   17.4018 C.ar      1 <0>         0.0500
     17 Cl1        15.0263    3.3375   18.0524 Cl        1 <0>        -0.0100
     18 N3         12.1893    7.7318   17.9191 N.am      1 <0>        -0.6600
     19 C13        12.1193    8.8235   17.1393 C.2       1 <0>         0.5300
     20 O3         11.3639    9.7617   17.2800 O.2       1 <0>        -0.4900
     21 C14        13.1601    8.6625   16.0517 C.3       1 <0>        -0.1100
     22 C15        19.1832    2.6832   16.7159 C.3       1 <0>        -0.1400
     23 C16        20.2783    1.8570   16.0340 C.3       1 <0>         0.1100
     24 H1         22.8311    3.3528   13.4530 H         1 <0>         0.0900
     25 H2         24.0098    3.9856   14.6271 H         1 <0>         0.0900
     26 H3         24.0767    2.2774   14.1313 H         1 <0>         0.0900
     27 H4         21.3047    4.3662   13.9248 H         1 <0>         0.0900
     28 H5         20.1112    3.1174   13.4850 H         1 <0>         0.0800
     29 H6         18.9238    5.1033   14.2736 H         1 <0>         0.0900
     30 H7         19.8941    5.1274   15.7662 H         1 <0>         0.0700
     31 H8         18.0273    2.8698   14.9073 H         1 <0>         0.0900
     32 H9         17.4791    4.5723   17.2328 H         1 <0>         0.4000
     33 H10        15.2911    7.0132   14.8651 H         1 <0>         0.1400
     34 H11        13.0648    5.2085   18.8889 H         1 <0>         0.1500
     35 H12        11.6245    7.5848   18.6938 H         1 <0>         0.4200
     36 H13        13.8976    9.4631   16.1070 H         1 <0>         0.1300
     37 H14        12.6870    8.6446   15.0698 H         1 <0>         0.1300
     38 H15        18.4723    2.0147   17.2016 H         1 <0>         0.0800
     39 H16        19.6332    3.3396   17.4606 H         1 <0>         0.0700
     40 H17        19.8227    1.1367   15.3545 H         1 <0>         0.0700
     41 H18        20.8634    1.3295   16.7872 H         1 <0>         0.1000
@<TRIPOS>BOND
     1    1    2 1
     2    1   24 1
     3    1   25 1
     4    1   26 1
     5    2    3 2
     6    2    4 am
     7    4   23 1
     8    4    5 1
     9    5    6 1
    10    5   27 1
    11    5   28 1
    12    6    7 1
    13    6   29 1
    14    6   30 1
    15    7    8 1
    16    7   22 1
    17    7   31 1
    18    8    9 am
    19    8   32 1
    20    9   10 2
    21    9   11 1
    22   11   16 ar
    23   11   12 ar
    24   12   13 ar
    25   12   33 1
    26   13   21 1
    27   13   14 ar
    28   14   15 ar
    29   14   18 1
    30   15   16 ar
    31   15   34 1
    32   16   17 1
    33   18   19 am
    34   18   35 1
    35   19   20 2
    36   19   21 1
    37   21   36 1
    38   21   37 1
    39   22   23 1
    40   22   38 1
    41   22   39 1
    42   23   40 1
    43   23   41 1
##########                 Name:            smyd3_148
##########          Protonation:                 none
##########               SMILES:   NC(=O)N1CCC(NC(=O)C2=C(Cl)C=C3NC(=O)CC3=C2)CC1
##########            Long Name:   NO_LONG_NAME
##########          FlexRecCode: 1
##########               Number:                  391
##########   Ligand Source File: /proj/zinc22/users/x_andlu/OGG1/revisions/docking/targets/smyd3/db2gen/split_par
##########                 Rank:                    1
##########               Setnum:                    6
##########             Matchnum:                    1
##########                Cloud:                    1
##########        Electrostatic:           -18.376183
##########                 Gist:             0.000000
##########        Van der Waals:           -31.250053
##########  Ligand Polar Desolv:             7.468700
########## Ligand Apolar Desolv:            -0.997614
##########      Internal Energy:             0.000000
##########      Receptor Energy:             0.000000
########## Receptor Desolvation:             0.000000
########## Receptor Hydrophobic:             0.000000
##########         Total Energy:           -43.155151
##########        Ligand Charge:             0.000000
##########            Arbitrary:    +999.9990
##########        Ligand Energy:             0.000000

@<TRIPOS>MOLECULE
smyd3_148      none
   40    42     0     0     0
SMALL
USER_CHARGES

@<TRIPOS>ATOM
      1 N1         23.1577    1.6490   15.7192 N.am      1 <0>        -0.8700
      2 C1         22.5334    2.7893   15.3636 C.2       1 <0>         0.7100
      3 O1         23.1756    3.8094   15.2032 O.2       1 <0>        -0.5900
      4 N2         21.1976    2.7990   15.1857 N.am      1 <0>        -0.6300
      5 C2         20.5761    3.7273   14.2313 C.3       1 <0>         0.1300
      6 C3         19.4863    4.5222   14.9482 C.3       1 <0>        -0.1500
      7 C4         18.5054    3.5537   15.6132 C.3       1 <0>         0.1500
      8 N3         17.4427    4.3139   16.2759 N.am      1 <0>        -0.7200
      9 C5         16.3208    4.6330   15.6007 C.2       1 <0>         0.5600
     10 O2         16.1906    4.2899   14.4414 O.2       1 <0>        -0.5100
     11 C6         15.2507    5.3983   16.2680 C.ar      1 <0>        -0.1600
     12 C7         14.6238    4.8857   17.4084 C.ar      1 <0>         0.0500
     13 Cl1        15.1060    3.3429   18.0415 Cl        1 <0>        -0.0100
     14 C8         13.6291    5.6038   18.0336 C.ar      1 <0>        -0.1400
     15 C9         13.2306    6.8424   17.5286 C.ar      1 <0>         0.1900
     16 N4         12.2617    7.7339   17.9769 N.am      1 <0>        -0.6600
     17 C10        12.1806    8.8314   17.2065 C.2       1 <0>         0.5300
     18 O3         11.4262    9.7678   17.3641 O.2       1 <0>        -0.4900
     19 C11        13.2077    8.6801   16.1045 C.3       1 <0>        -0.1100
     20 C12        13.8554    7.3441   16.3893 C.ar      1 <0>        -0.1500
     21 C13        14.8513    6.6400   15.7616 C.ar      1 <0>        -0.0200
     22 C14        19.2467    2.7048   16.6485 C.3       1 <0>        -0.1400
     23 C15        20.3344    1.8855   15.9467 C.3       1 <0>         0.1200
     24 H1         24.1190    1.6426   15.8491 H         1 <0>         0.4200
     25 H2         22.6453    0.8358   15.8490 H         1 <0>         0.4000
     26 H3         21.3304    4.4119   13.8435 H         1 <0>         0.1000
     27 H4         20.1333    3.1646   13.4096 H         1 <0>         0.0700
     28 H5         18.9532    5.1426   14.2278 H         1 <0>         0.0800
     29 H6         19.9420    5.1571   15.7081 H         1 <0>         0.0700
     30 H7         18.0680    2.9030   14.8560 H         1 <0>         0.1000
     31 H8         17.5466    4.5874   17.2007 H         1 <0>         0.4000
     32 H9         13.1522    5.2048   18.9166 H         1 <0>         0.1500
     33 H10        11.7070    7.5805   18.7577 H         1 <0>         0.4200
     34 H11        13.9450    9.4811   16.1567 H         1 <0>         0.1300
     35 H12        12.7223    8.6692   15.1286 H         1 <0>         0.1300
     36 H13        15.3255    7.0428   14.8789 H         1 <0>         0.1400
     37 H14        18.5431    2.0315   17.1380 H         1 <0>         0.0900
     38 H15        19.7051    3.3565   17.3923 H         1 <0>         0.0800
     39 H16        19.8715    1.1694   15.2676 H         1 <0>         0.0800
     40 H17        20.9298    1.3532   16.6885 H         1 <0>         0.0800
@<TRIPOS>BOND
     1    1    2 am
     2    1   24 1
     3    1   25 1
     4    2    3 2
     5    2    4 am
     6    4   23 1
     7    4    5 1
     8    5    6 1
     9    5   26 1
    10    5   27 1
    11    6    7 1
    12    6   28 1
    13    6   29 1
    14    7    8 1
    15    7   22 1
    16    7   30 1
    17    8    9 am
    18    8   31 1
    19    9   10 2
    20    9   11 1
    21   11   21 ar
    22   11   12 ar
    23   12   13 1
    24   12   14 ar
    25   14   15 ar
    26   14   32 1
    27   15   20 ar
    28   15   16 1
    29   16   17 am
    30   16   33 1
    31   17   18 2
    32   17   19 1
    33   19   20 1
    34   19   34 1
    35   19   35 1
    36   20   21 ar
    37   21   36 1
    38   22   23 1
    39   22   37 1
    40   22   38 1
    41   23   39 1
    42   23   40 1
##########                 Name:            smyd3_149
##########          Protonation:                 none
##########               SMILES:   O=C1CC2=CC(C(=O)NC3CCN(C(=O)F)CC3)=C(Cl)C=C2N1
##########            Long Name:   NO_LONG_NAME
##########          FlexRecCode: 1
##########               Number:                  392
##########   Ligand Source File: /proj/zinc22/users/x_andlu/OGG1/revisions/docking/targets/smyd3/db2gen/split_par
##########                 Rank:                    1
##########               Setnum:                    6
##########             Matchnum:                    4
##########                Cloud:                    1
##########        Electrostatic:           -16.991125
##########                 Gist:             0.000000
##########        Van der Waals:           -31.370480
##########  Ligand Polar Desolv:             6.242107
########## Ligand Apolar Desolv:            -1.491993
##########      Internal Energy:             0.000000
##########      Receptor Energy:             0.000000
########## Receptor Desolvation:             0.000000
########## Receptor Hydrophobic:             0.000000
##########         Total Energy:           -43.611488
##########        Ligand Charge:             0.000000
##########            Arbitrary:    +999.9990
##########        Ligand Energy:             0.000000

@<TRIPOS>MOLECULE
smyd3_149      none
   38    40     0     0     0
SMALL
USER_CHARGES

@<TRIPOS>ATOM
      1 O1         11.5068    9.7597   17.4195 O.2       1 <0>        -0.4900
      2 C1         12.2520    8.8180   17.2502 C.2       1 <0>         0.5300
      3 C2         13.2792    8.6714   16.1478 C.3       1 <0>        -0.1100
      4 C3         13.9132    7.3253   16.4154 C.ar      1 <0>        -0.1500
      5 C4         14.9031    6.6200   15.7797 C.ar      1 <0>        -0.0200
      6 C5         15.2894    5.3676   16.2698 C.ar      1 <0>        -0.1600
      7 C6         16.3529    4.6007   15.5937 C.2       1 <0>         0.5600
      8 O2         16.2212    4.2747   14.4297 O.2       1 <0>        -0.5100
      9 N1         17.4705    4.2613   16.2663 N.am      1 <0>        -0.7200
     10 C7         18.5266    3.4998   15.5949 C.3       1 <0>         0.1500
     11 C8         19.2578    2.6296   16.6197 C.3       1 <0>        -0.1400
     12 C9         20.3383    1.8088   15.9086 C.3       1 <0>         0.1300
     13 N2         21.2124    2.7214   15.1588 N.am      1 <0>        -0.6100
     14 C10        22.5481    2.6937   15.3365 C.2       1 <0>         0.6600
     15 O3         23.2595    3.4528   14.7110 O.2       1 <0>        -0.5200
     16 F1         23.0954    1.8211   16.2109 F         1 <0>        -0.1400
     17 C11        20.6017    3.6674   14.2145 C.3       1 <0>         0.1000
     18 C12        19.5182    4.4672   14.9446 C.3       1 <0>        -0.1500
     19 C13        14.6555    4.8459   17.4021 C.ar      1 <0>         0.0500
     20 Cl1        15.1214    3.2899   18.0150 Cl        1 <0>        -0.0100
     21 C14        13.6671    5.5652   18.0356 C.ar      1 <0>        -0.1400
     22 C15        13.2817    6.8144   17.5469 C.ar      1 <0>         0.1900
     23 N3         12.3209    7.7094   18.0058 N.am      1 <0>        -0.6600
     24 H1         14.0245    9.4643   16.2119 H         1 <0>         0.1300
     25 H2         12.7954    8.6785   15.1712 H         1 <0>         0.1300
     26 H3         15.3827    7.0300   14.9032 H         1 <0>         0.1400
     27 H4         17.5755    4.5215   17.1948 H         1 <0>         0.4000
     28 H5         18.0840    2.8638   14.8283 H         1 <0>         0.1000
     29 H6         18.5466    1.9568   17.0991 H         1 <0>         0.0900
     30 H7         19.7214    3.2664   17.3730 H         1 <0>         0.0800
     31 H8         20.9266    1.2625   16.6457 H         1 <0>         0.1100
     32 H9         19.8693    1.1050   15.2210 H         1 <0>         0.0800
     33 H10        20.1542    3.1169   13.3869 H         1 <0>         0.0900
     34 H11        21.3625    4.3476   13.8317 H         1 <0>         0.1000
     35 H12        18.9924    5.1025   14.2318 H         1 <0>         0.0900
     36 H13        19.9790    5.0872   15.7136 H         1 <0>         0.0700
     37 H14        13.1848    5.1591   18.9124 H         1 <0>         0.1500
     38 H15        11.7635    7.5510   18.7837 H         1 <0>         0.4200
@<TRIPOS>BOND
     1    1    2 2
     2    2   23 am
     3    2    3 1
     4    3    4 1
     5    3   24 1
     6    3   25 1
     7    4   22 ar
     8    4    5 ar
     9    5    6 ar
    10    5   26 1
    11    6    7 1
    12    6   19 ar
    13    7    8 2
    14    7    9 am
    15    9   10 1
    16    9   27 1
    17   10   18 1
    18   10   11 1
    19   10   28 1
    20   11   12 1
    21   11   29 1
    22   11   30 1
    23   12   13 1
    24   12   31 1
    25   12   32 1
    26   13   14 am
    27   13   17 1
    28   14   15 2
    29   14   16 1
    30   17   18 1
    31   17   33 1
    32   17   34 1
    33   18   35 1
    34   18   36 1
    35   19   20 1
    36   19   21 ar
    37   21   22 ar
    38   21   37 1
    39   22   23 1
    40   23   38 1
##########                 Name:            smyd3_150
##########          Protonation:                 none
##########               SMILES:   CCON1CCC(NC(=O)C2=CC3=C(C=C2Cl)NC(=O)C3)CC1
##########            Long Name:   NO_LONG_NAME
##########          FlexRecCode: 1
##########               Number:                  395
##########   Ligand Source File: /proj/zinc22/users/x_andlu/OGG1/revisions/docking/targets/smyd3/db2gen/split_par
##########                 Rank:                    1
##########               Setnum:                   20
##########             Matchnum:                    1
##########                Cloud:                    1
##########        Electrostatic:           -14.610783
##########                 Gist:             0.000000
##########        Van der Waals:           -32.750183
##########  Ligand Polar Desolv:             6.291813
########## Ligand Apolar Desolv:            -1.388891
##########      Internal Energy:             0.000000
##########      Receptor Energy:             0.000000
########## Receptor Desolvation:             0.000000
########## Receptor Hydrophobic:             0.000000
##########         Total Energy:           -42.458042
##########        Ligand Charge:             0.000000
##########            Arbitrary:    +999.9990
##########        Ligand Energy:             0.000000

@<TRIPOS>MOLECULE
smyd3_150      none
   43    45     0     0     0
SMALL
USER_CHARGES

@<TRIPOS>ATOM
      1 C1         20.0510   -1.9014   16.6635 C.3       1 <0>        -0.1500
      2 C2         20.2968   -1.5597   15.1925 C.3       1 <0>         0.0300
      3 O1         20.7040   -0.1943   15.0823 O.3       1 <0>        -0.2300
      4 N1         19.7204    0.7627   15.5893 N.3       1 <0>        -0.3300
      5 C3         20.3656    2.0218   15.9832 C.3       1 <0>         0.0100
      6 C4         19.3341    2.9410   16.6411 C.3       1 <0>        -0.1200
      7 C5         18.1981    3.2158   15.6519 C.3       1 <0>         0.1400
      8 N2         17.1787    4.0479   16.2959 N.am      1 <0>        -0.7200
      9 C6         16.0775    4.4151   15.6111 C.2       1 <0>         0.5600
     10 O2         15.9299    4.0556   14.4590 O.2       1 <0>        -0.5100
     11 C7         15.0509    5.2529   16.2596 C.ar      1 <0>        -0.1600
     12 C8         14.7221    6.5036   15.7265 C.ar      1 <0>        -0.0200
     13 C9         13.7659    7.2754   16.3368 C.ar      1 <0>        -0.1500
     14 C10        13.1128    6.8336   17.4845 C.ar      1 <0>         0.1900
     15 C11        13.4410    5.5853   18.0166 C.ar      1 <0>        -0.1400
     16 C12        14.3946    4.8000   17.4092 C.ar      1 <0>         0.0500
     17 Cl1        14.7891    3.2465   18.0758 Cl        1 <0>        -0.0100
     18 N3         12.1941    7.7868   17.9114 N.am      1 <0>        -0.6600
     19 C13        12.1751    8.8704   17.1178 C.2       1 <0>         0.5300
     20 O3         11.4734    9.8502   17.2534 O.2       1 <0>        -0.4900
     21 C14        13.1938    8.6389   16.0220 C.3       1 <0>        -0.1100
     22 C15        17.5747    1.8853   15.2204 C.3       1 <0>        -0.1200
     23 C16        18.6572    0.9967   14.6038 C.3       1 <0>         0.0300
     24 H1         19.7404   -2.9428   16.7475 H         1 <0>         0.0700
     25 H2         20.9694   -1.7492   17.2301 H         1 <0>         0.0700
     26 H3         19.2678   -1.2555   17.0605 H         1 <0>         0.0600
     27 H4         21.0798   -2.2056   14.7952 H         1 <0>         0.0600
     28 H5         19.3781   -1.7117   14.6258 H         1 <0>         0.0500
     29 H6         21.1688    1.8127   16.6898 H         1 <0>         0.0900
     30 H7         20.7771    2.5107   15.1002 H         1 <0>         0.0500
     31 H8         19.8098    3.8816   16.9192 H         1 <0>         0.0800
     32 H9         18.9321    2.4591   17.5322 H         1 <0>         0.0800
     33 H10        18.5932    3.7333   14.7778 H         1 <0>         0.0900
     34 H11        17.2964    4.3348   17.2150 H         1 <0>         0.4000
     35 H12        15.2192    6.8606   14.8366 H         1 <0>         0.1400
     36 H13        12.9413    5.2323   18.9066 H         1 <0>         0.1500
     37 H14        11.6304    7.6808   18.6937 H         1 <0>         0.4200
     38 H15        13.9744    9.3988   16.0592 H         1 <0>         0.1300
     39 H16        12.7100    8.6341   15.0452 H         1 <0>         0.1300
     40 H17        16.7934    2.0716   14.4837 H         1 <0>         0.0900
     41 H18        17.1451    1.3861   16.0890 H         1 <0>         0.0800
     42 H19        19.0767    1.4904   13.7273 H         1 <0>         0.0500
     43 H20        18.2194    0.0430   14.3087 H         1 <0>         0.1000
@<TRIPOS>BOND
     1    1    2 1
     2    1   24 1
     3    1   25 1
     4    1   26 1
     5    2    3 1
     6    2   27 1
     7    2   28 1
     8    3    4 1
     9    4   23 1
    10    4    5 1
    11    5    6 1
    12    5   29 1
    13    5   30 1
    14    6    7 1
    15    6   31 1
    16    6   32 1
    17    7    8 1
    18    7   22 1
    19    7   33 1
    20    8    9 am
    21    8   34 1
    22    9   10 2
    23    9   11 1
    24   11   16 ar
    25   11   12 ar
    26   12   13 ar
    27   12   35 1
    28   13   21 1
    29   13   14 ar
    30   14   15 ar
    31   14   18 1
    32   15   16 ar
    33   15   36 1
    34   16   17 1
    35   18   19 am
    36   18   37 1
    37   19   20 2
    38   19   21 1
    39   21   38 1
    40   21   39 1
    41   22   23 1
    42   22   40 1
    43   22   41 1
    44   23   42 1
    45   23   43 1
##########                 Name:            smyd3_151
##########          Protonation:                 none
##########               SMILES:   CC(C)[NH+]1CCC(NC(=O)C2=CC3=C(C=C2Cl)NC(=O)C3)CC1
##########            Long Name:   NO_LONG_NAME
##########          FlexRecCode: 1
##########               Number:                  397
##########   Ligand Source File: /proj/zinc22/users/x_andlu/OGG1/revisions/docking/targets/smyd3/db2gen/split_par
##########                 Rank:                    1
##########               Setnum:                    4
##########             Matchnum:                   10
##########                Cloud:                    1
##########        Electrostatic:           -22.977354
##########                 Gist:             0.000000
##########        Van der Waals:           -29.778444
##########  Ligand Polar Desolv:            10.374928
########## Ligand Apolar Desolv:            -1.824917
##########      Internal Energy:             0.000000
##########      Receptor Energy:             0.000000
########## Receptor Desolvation:             0.000000
########## Receptor Hydrophobic:             0.000000
##########         Total Energy:           -44.205788
##########        Ligand Charge:             1.000000
##########            Arbitrary:    +999.9990
##########        Ligand Energy:             0.000000

@<TRIPOS>MOLECULE
smyd3_151      none
   46    48     0     0     0
SMALL
USER_CHARGES

@<TRIPOS>ATOM
      1 C1         23.9048    3.8558   14.5038 C.3       1 <0>        -0.1900
      2 C2         22.9435    2.7324   14.8974 C.3       1 <0>         0.0200
      3 C3         23.6167    1.8224   15.9266 C.3       1 <0>        -0.1900
      4 N1         21.7251    3.3118   15.4788 N.4       1 <0>        -0.3800
      5 H1         21.9674    3.8502   16.2972 H         1 <0>         0.4200
      6 C4         21.0824    4.1875   14.4916 C.3       1 <0>        -0.0000
      7 C5         19.8575    4.8568   15.1188 C.3       1 <0>        -0.1600
      8 C6         18.8674    3.7783   15.5682 C.3       1 <0>         0.1400
      9 N2         17.7271    4.4085   16.2380 N.am      1 <0>        -0.7300
     10 C7         16.6461    4.7786   15.5232 C.2       1 <0>         0.5700
     11 O1         16.6174    4.5895   14.3224 O.2       1 <0>        -0.5000
     12 C8         15.4979    5.4134   16.1977 C.ar      1 <0>        -0.1700
     13 C9         15.0852    6.6977   15.8280 C.ar      1 <0>        -0.0200
     14 C10        14.0126    7.2773   16.4576 C.ar      1 <0>        -0.1500
     15 C11        13.3232    6.6060   17.4639 C.ar      1 <0>         0.2000
     16 C12        13.7349    5.3240   17.8327 C.ar      1 <0>        -0.1400
     17 C13        14.8098    4.7330   17.2083 C.ar      1 <0>         0.0600
     18 Cl1        15.3128    3.1385   17.6755 Cl        1 <0>        -0.0100
     19 N3         12.2837    7.3962   17.9435 N.am      1 <0>        -0.6600
     20 C14        12.2152    8.5845   17.3207 C.2       1 <0>         0.5300
     21 O2         11.4101    9.4654   17.5366 O.2       1 <0>        -0.4800
     22 C15        13.3313    8.6175   16.2983 C.3       1 <0>        -0.1100
     23 C16        19.5695    2.8254   16.5400 C.3       1 <0>        -0.1600
     24 C17        20.8061    2.2330   15.8608 C.3       1 <0>        -0.0100
     25 H2         23.4252    4.5042   13.7705 H         1 <0>         0.1100
     26 H3         24.1653    4.4376   15.3880 H         1 <0>         0.0800
     27 H4         24.8088    3.4259   14.0724 H         1 <0>         0.0800
     28 H5         22.6830    2.1506   14.0133 H         1 <0>         0.1400
     29 H6         22.9319    1.0221   16.2072 H         1 <0>         0.0800
     30 H7         24.5207    1.3926   15.4954 H         1 <0>         0.1100
     31 H8         23.8771    2.4042   16.8108 H         1 <0>         0.0800
     32 H9         20.7717    3.5965   13.6301 H         1 <0>         0.1300
     33 H10        21.7894    4.9525   14.1709 H         1 <0>         0.1400
     34 H11        19.3805    5.5051   14.3837 H         1 <0>         0.1200
     35 H12        20.1666    5.4488   15.9802 H         1 <0>         0.0900
     36 H13        18.5174    3.2203   14.6998 H         1 <0>         0.1100
     37 H14        17.7501    4.5596   17.1959 H         1 <0>         0.4000
     38 H15        15.6092    7.2316   15.0490 H         1 <0>         0.1400
     39 H16        13.2079    4.7936   18.6120 H         1 <0>         0.1500
     40 H17        11.6767    7.1203   18.6480 H         1 <0>         0.4200
     41 H18        14.0264    9.4279   16.5174 H         1 <0>         0.1300
     42 H19        12.9251    8.7225   15.2922 H         1 <0>         0.1300
     43 H20        19.8729    3.3737   17.4318 H         1 <0>         0.0900
     44 H21        18.8869    2.0231   16.8201 H         1 <0>         0.1200
     45 H22        20.5014    1.6835   14.9701 H         1 <0>         0.1300
     46 H23        21.3090    1.5552   16.5509 H         1 <0>         0.1400
@<TRIPOS>BOND
     1    1    2 1
     2    1   25 1
     3    1   26 1
     4    1   27 1
     5    2    3 1
     6    2    4 1
     7    2   28 1
     8    3   29 1
     9    3   30 1
    10    3   31 1
    11    4    5 1
    12    4   24 1
    13    4    6 1
    14    6    7 1
    15    6   32 1
    16    6   33 1
    17    7    8 1
    18    7   34 1
    19    7   35 1
    20    8    9 1
    21    8   23 1
    22    8   36 1
    23    9   10 am
    24    9   37 1
    25   10   11 2
    26   10   12 1
    27   12   17 ar
    28   12   13 ar
    29   13   14 ar
    30   13   38 1
    31   14   22 1
    32   14   15 ar
    33   15   16 ar
    34   15   19 1
    35   16   17 ar
    36   16   39 1
    37   17   18 1
    38   19   20 am
    39   19   40 1
    40   20   21 2
    41   20   22 1
    42   22   41 1
    43   22   42 1
    44   23   24 1
    45   23   43 1
    46   23   44 1
    47   24   45 1
    48   24   46 1
##########                 Name:            smyd3_152
##########          Protonation:                 none
##########               SMILES:   O=C1CC2=CC(C(=O)NC3CC[NH+](C4CC4)CC3)=C(Cl)C=C2N1
##########            Long Name:   NO_LONG_NAME
##########          FlexRecCode: 1
##########               Number:                  398
##########   Ligand Source File: /proj/zinc22/users/x_andlu/OGG1/revisions/docking/targets/smyd3/db2gen/split_par
##########                 Rank:                    1
##########               Setnum:                   14
##########             Matchnum:                   18
##########                Cloud:                    1
##########        Electrostatic:           -21.280445
##########                 Gist:             0.000000
##########        Van der Waals:           -28.756653
##########  Ligand Polar Desolv:             8.184046
########## Ligand Apolar Desolv:            -2.396803
##########      Internal Energy:             0.000000
##########      Receptor Energy:             0.000000
########## Receptor Desolvation:             0.000000
########## Receptor Hydrophobic:             0.000000
##########         Total Energy:           -44.249855
##########        Ligand Charge:             1.000000
##########            Arbitrary:    +999.9990
##########        Ligand Energy:             0.000000

@<TRIPOS>MOLECULE
smyd3_152      none
   44    47     0     0     0
SMALL
USER_CHARGES

@<TRIPOS>ATOM
      1 O1         11.1458    9.9841   16.6330 O.2       1 <0>        -0.4800
      2 C1         11.8970    9.0332   16.6833 C.2       1 <0>         0.5300
      3 C2         12.9590    8.6720   15.6666 C.3       1 <0>        -0.1100
      4 C3         13.5854    7.4139   16.2234 C.ar      1 <0>        -0.1500
      5 C4         14.5958    6.6009   15.7766 C.ar      1 <0>        -0.0200
      6 C5         14.9673    5.4781   16.5243 C.ar      1 <0>        -0.1700
      7 C6         16.0523    4.5968   16.0525 C.2       1 <0>         0.5700
      8 O2         17.1713    5.0437   15.8900 O.2       1 <0>        -0.5000
      9 N1         15.8030    3.2962   15.8014 N.am      1 <0>        -0.7300
     10 C7         16.8803    2.4211   15.3329 C.3       1 <0>         0.1400
     11 C8         16.3367    1.0040   15.1290 C.3       1 <0>        -0.1600
     12 C9         17.4836    0.0778   14.7183 C.3       1 <0>        -0.0100
     13 N2         18.5093    0.0655   15.7683 N.4       1 <0>        -0.3500
     14 H1         18.0918   -0.2192   16.6416 H         1 <0>         0.4200
     15 C10        19.5698   -0.8833   15.4035 C.3       1 <0>        -0.0800
     16 C11        20.0146   -1.8890   16.4674 C.3       1 <0>        -0.1600
     17 C12        20.9287   -0.7213   16.0877 C.3       1 <0>        -0.1500
     18 C13        19.0854    1.4072   15.9176 C.3       1 <0>         0.0000
     19 C14        18.0006    2.3840   16.3764 C.3       1 <0>        -0.1600
     20 C15        14.3021    5.1974   17.7222 C.ar      1 <0>         0.0600
     21 Cl1        14.7545    3.8072   18.6583 Cl        1 <0>        -0.0100
     22 C16        13.2891    6.0203   18.1609 C.ar      1 <0>        -0.1400
     23 C17        12.9187    7.1404   17.4153 C.ar      1 <0>         0.2000
     24 N3         11.9468    8.1065   17.6544 N.am      1 <0>        -0.6600
     25 H2         12.5065    8.4757   14.6945 H         1 <0>         0.1300
     26 H3         13.6997    9.4679   15.5884 H         1 <0>         0.1300
     27 H4         15.1027    6.8265   14.8499 H         1 <0>         0.1400
     28 H5         14.9102    2.9397   15.9312 H         1 <0>         0.4000
     29 H6         17.2733    2.8000   14.3894 H         1 <0>         0.1100
     30 H7         15.8964    0.6456   16.0596 H         1 <0>         0.0900
     31 H8         15.5778    1.0144   14.3468 H         1 <0>         0.1200
     32 H9         17.9220    0.4362   13.7870 H         1 <0>         0.1400
     33 H10        17.1000   -0.9321   14.5740 H         1 <0>         0.1300
     34 H11        19.5654   -1.2172   14.3660 H         1 <0>         0.1800
     35 H12        19.5203   -1.8467   17.4379 H         1 <0>         0.1200
     36 H13        20.3033   -2.8843   16.1296 H         1 <0>         0.1300
     37 H14        21.8182   -0.9490   15.5004 H         1 <0>         0.1300
     38 H15        21.0359    0.0895   16.8082 H         1 <0>         0.1200
     39 H16        19.4896    1.7371   14.9607 H         1 <0>         0.1300
     40 H17        19.8844    1.3782   16.6586 H         1 <0>         0.1400
     41 H18        18.4298    3.3800   16.4850 H         1 <0>         0.1200
     42 H19        17.5957    2.0551   17.3336 H         1 <0>         0.0900
     43 H20        12.7790    5.7980   19.0865 H         1 <0>         0.1500
     44 H21        11.3685    8.1092   18.4332 H         1 <0>         0.4200
@<TRIPOS>BOND
     1    1    2 2
     2    2   24 am
     3    2    3 1
     4    3    4 1
     5    3   25 1
     6    3   26 1
     7    4   23 ar
     8    4    5 ar
     9    5    6 ar
    10    5   27 1
    11    6    7 1
    12    6   20 ar
    13    7    8 2
    14    7    9 am
    15    9   10 1
    16    9   28 1
    17   10   19 1
    18   10   11 1
    19   10   29 1
    20   11   12 1
    21   11   30 1
    22   11   31 1
    23   12   13 1
    24   12   32 1
    25   12   33 1
    26   13   14 1
    27   13   15 1
    28   13   18 1
    29   15   17 1
    30   15   16 1
    31   15   34 1
    32   16   17 1
    33   16   35 1
    34   16   36 1
    35   17   37 1
    36   17   38 1
    37   18   19 1
    38   18   39 1
    39   18   40 1
    40   19   41 1
    41   19   42 1
    42   20   21 1
    43   20   22 ar
    44   22   23 ar
    45   22   43 1
    46   23   24 1
    47   24   44 1
##########                 Name:            smyd3_153
##########          Protonation:                 none
##########               SMILES:   C#CC[NH+]1CCC(NC(=O)C2=CC3=C(C=C2Cl)NC(=O)C3)CC1
##########            Long Name:   NO_LONG_NAME
##########          FlexRecCode: 1
##########               Number:                  404
##########   Ligand Source File: /proj/zinc22/users/x_andlu/OGG1/revisions/docking/targets/smyd3/db2gen/split_par
##########                 Rank:                    1
##########               Setnum:                   36
##########             Matchnum:                    2
##########                Cloud:                    1
##########        Electrostatic:           -25.226652
##########                 Gist:             0.000000
##########        Van der Waals:           -31.935802
##########  Ligand Polar Desolv:            10.673932
########## Ligand Apolar Desolv:            -2.500819
##########      Internal Energy:             0.000000
##########      Receptor Energy:             0.000000
########## Receptor Desolvation:             0.000000
########## Receptor Hydrophobic:             0.000000
##########         Total Energy:           -48.989342
##########        Ligand Charge:             1.000000
##########            Arbitrary:    +999.9990
##########        Ligand Energy:             0.000000

@<TRIPOS>MOLECULE
smyd3_153      none
   42    44     0     0     0
SMALL
USER_CHARGES

@<TRIPOS>ATOM
      1 C1         19.8263   -2.2460   14.0359 C.1       1 <0>        -0.0600
      2 C2         20.3436   -1.3663   14.6161 C.1       1 <0>        -0.3000
      3 C3         20.9923   -0.2632   15.3436 C.3       1 <0>         0.1300
      4 N1         19.9680    0.6671   15.8368 N.4       1 <0>        -0.3900
      5 H1         19.5558    0.2946   16.6791 H         1 <0>         0.4300
      6 C4         20.5881    1.9648   16.1299 C.3       1 <0>        -0.0000
      7 C5         19.5419    2.9127   16.7202 C.3       1 <0>        -0.1600
      8 C6         18.4068    3.1041   15.7103 C.3       1 <0>         0.1400
      9 N2         17.3652    3.9498   16.2985 N.am      1 <0>        -0.7300
     10 C7         16.2611    4.2518   15.5870 C.2       1 <0>         0.5700
     11 O1         16.1295    3.8224   14.4571 O.2       1 <0>        -0.5000
     12 C8         15.2121    5.1035   16.1793 C.ar      1 <0>        -0.1700
     13 C9         14.8605    6.3135   15.5721 C.ar      1 <0>        -0.0200
     14 C10        13.8798    7.0960   16.1276 C.ar      1 <0>        -0.1500
     15 C11        13.2241    6.7049   17.2921 C.ar      1 <0>         0.2000
     16 C12        13.5749    5.4971   17.8980 C.ar      1 <0>        -0.1400
     17 C13        14.5575    4.7043   17.3497 C.ar      1 <0>         0.0600
     18 Cl1        14.9854    3.2046   18.1121 Cl        1 <0>        -0.0100
     19 N3         12.2793    7.6591   17.6548 N.am      1 <0>        -0.6600
     20 C14        12.2446    8.6952   16.8005 C.2       1 <0>         0.5300
     21 O2         11.5193    9.6645   16.8730 O.2       1 <0>        -0.4800
     22 C15        13.2804    8.4257   15.7298 C.3       1 <0>        -0.1100
     23 C16        17.8158    1.7370   15.3537 C.3       1 <0>        -0.1600
     24 C17        18.9264    0.8321   14.8158 C.3       1 <0>        -0.0000
     25 H2         19.3637   -3.0330   13.5168 H         1 <0>         0.2400
     26 H3         21.6703    0.2649   14.6734 H         1 <0>         0.1500
     27 H4         21.5544   -0.6650   16.1867 H         1 <0>         0.1500
     28 H5         20.9872    2.3922   15.2101 H         1 <0>         0.1400
     29 H6         21.3977    1.8260   16.8466 H         1 <0>         0.1400
     30 H7         20.0040    3.8762   16.9354 H         1 <0>         0.1200
     31 H8         19.1424    2.4863   17.6404 H         1 <0>         0.1000
     32 H9         18.7965    3.5789   14.8097 H         1 <0>         0.1100
     33 H10        17.4702    4.2925   17.1998 H         1 <0>         0.4000
     34 H11        15.3594    6.6309   14.6682 H         1 <0>         0.1400
     35 H12        13.0733    5.1834   18.8015 H         1 <0>         0.1500
     36 H13        11.7096    7.5848   18.4364 H         1 <0>         0.4200
     37 H14        14.0432    9.2043   15.7313 H         1 <0>         0.1300
     38 H15        12.8079    8.3541   14.7502 H         1 <0>         0.1300
     39 H16        17.3795    1.2856   16.2448 H         1 <0>         0.0900
     40 H17        17.0451    1.8608   14.5930 H         1 <0>         0.1200
     41 H18        19.3610    1.2836   13.9240 H         1 <0>         0.1300
     42 H19        18.5090   -0.1426   14.5625 H         1 <0>         0.1300
@<TRIPOS>BOND
     1    1    2 3
     2    1   25 1
     3    2    3 1
     4    3    4 1
     5    3   26 1
     6    3   27 1
     7    4    5 1
     8    4   24 1
     9    4    6 1
    10    6    7 1
    11    6   28 1
    12    6   29 1
    13    7    8 1
    14    7   30 1
    15    7   31 1
    16    8    9 1
    17    8   23 1
    18    8   32 1
    19    9   10 am
    20    9   33 1
    21   10   11 2
    22   10   12 1
    23   12   17 ar
    24   12   13 ar
    25   13   14 ar
    26   13   34 1
    27   14   22 1
    28   14   15 ar
    29   15   16 ar
    30   15   19 1
    31   16   17 ar
    32   16   35 1
    33   17   18 1
    34   19   20 am
    35   19   36 1
    36   20   21 2
    37   20   22 1
    38   22   37 1
    39   22   38 1
    40   23   24 1
    41   23   39 1
    42   23   40 1
    43   24   41 1
    44   24   42 1
##########                 Name:            smyd3_154
##########          Protonation:                 none
##########               SMILES:   N#CCN1CCC(NC(=O)C2=C(Cl)C=C3NC(=O)CC3=C2)CC1
##########            Long Name:   NO_LONG_NAME
##########          FlexRecCode: 1
##########               Number:                  406
##########   Ligand Source File: /proj/zinc22/users/x_andlu/OGG1/revisions/docking/targets/smyd3/db2gen/split_par
##########                 Rank:                    1
##########               Setnum:                    4
##########             Matchnum:                   15
##########                Cloud:                    1
##########        Electrostatic:           -21.246138
##########                 Gist:             0.000000
##########        Van der Waals:           -28.799507
##########  Ligand Polar Desolv:             6.735618
########## Ligand Apolar Desolv:            -1.145390
##########      Internal Energy:             0.000000
##########      Receptor Energy:             0.000000
########## Receptor Desolvation:             0.000000
########## Receptor Hydrophobic:             0.000000
##########         Total Energy:           -44.455418
##########        Ligand Charge:             0.000000
##########            Arbitrary:    +999.9990
##########        Ligand Energy:             0.000000

@<TRIPOS>MOLECULE
smyd3_154      none
   40    42     0     0     0
SMALL
USER_CHARGES

@<TRIPOS>ATOM
      1 N1         24.6020    4.0851   15.1939 N.1       1 <0>        -0.4200
      2 C1         23.7656    3.3172   15.2319 C.1       1 <0>         0.2100
      3 C2         22.6820    2.3222   15.2811 C.3       1 <0>         0.1500
      4 N2         21.4456    2.9672   15.7427 N.3       1 <0>        -0.5400
      5 C3         20.8451    3.7783   14.6760 C.3       1 <0>         0.0600
      6 C4         19.6450    4.5478   15.2325 C.3       1 <0>        -0.1200
      7 C5         18.6183    3.5539   15.7828 C.3       1 <0>         0.1500
      8 N3         17.4934    4.2864   16.3695 N.am      1 <0>        -0.7200
      9 C6         16.4304    4.6118   15.6077 C.2       1 <0>         0.5600
     10 O1         16.4048    4.2974   14.4334 O.2       1 <0>        -0.5100
     11 C7         15.2976    5.3495   16.1986 C.ar      1 <0>        -0.1500
     12 C8         14.5806    4.8017   17.2673 C.ar      1 <0>         0.0500
     13 Cl1        15.0243    3.2475   17.9010 Cl        1 <0>        -0.0100
     14 C9         13.5237    5.4913   17.8178 C.ar      1 <0>        -0.1400
     15 C10        13.1600    6.7415   17.3152 C.ar      1 <0>         0.1900
     16 N4         12.1498    7.6150   17.7045 N.am      1 <0>        -0.6600
     17 C11        12.1238    8.7318   16.9585 C.2       1 <0>         0.5300
     18 O2         11.3500    9.6583   17.0758 O.2       1 <0>        -0.4900
     19 C12        13.2458    8.6202   15.9483 C.3       1 <0>        -0.1100
     20 C13        13.8784    7.2809   16.2509 C.ar      1 <0>        -0.1500
     21 C14        14.9328    6.6027   15.6945 C.ar      1 <0>        -0.0200
     22 C15        19.2824    2.6890   16.8578 C.3       1 <0>        -0.1300
     23 C16        20.4930    1.9735   16.2542 C.3       1 <0>         0.0500
     24 H1         22.9538    1.5227   15.9702 H         1 <0>         0.0800
     25 H2         22.5251    1.9064   14.2858 H         1 <0>         0.1200
     26 H3         20.5154    3.1271   13.8665 H         1 <0>         0.0500
     27 H4         21.5844    4.4837   14.2965 H         1 <0>         0.0900
     28 H5         19.1901    5.1377   14.4367 H         1 <0>         0.0800
     29 H6         19.9762    5.2094   16.0329 H         1 <0>         0.0800
     30 H7         18.2572    2.9182   14.9744 H         1 <0>         0.0900
     31 H8         17.5138    4.5371   17.3063 H         1 <0>         0.4000
     32 H9         12.9734    5.0627   18.6424 H         1 <0>         0.1500
     33 H10        11.5323    7.4366   18.4310 H         1 <0>         0.4200
     34 H11        12.8489    8.6348   14.9332 H         1 <0>         0.1300
     35 H12        13.9667    9.4259   16.0873 H         1 <0>         0.1300
     36 H13        15.4796    7.0345   14.8693 H         1 <0>         0.1400
     37 H14        19.6079    3.3214   17.6839 H         1 <0>         0.0800
     38 H15        18.5684    1.9509   17.2234 H         1 <0>         0.0800
     39 H16        20.1649    1.3308   15.4373 H         1 <0>         0.0500
     40 H17        20.9764    1.3681   17.0210 H         1 <0>         0.0800
@<TRIPOS>BOND
     1    1    2 3
     2    2    3 1
     3    3    4 1
     4    3   24 1
     5    3   25 1
     6    4   23 1
     7    4    5 1
     8    5    6 1
     9    5   26 1
    10    5   27 1
    11    6    7 1
    12    6   28 1
    13    6   29 1
    14    7    8 1
    15    7   22 1
    16    7   30 1
    17    8    9 am
    18    8   31 1
    19    9   10 2
    20    9   11 1
    21   11   21 ar
    22   11   12 ar
    23   12   13 1
    24   12   14 ar
    25   14   15 ar
    26   14   32 1
    27   15   20 ar
    28   15   16 1
    29   16   17 am
    30   16   33 1
    31   17   18 2
    32   17   19 1
    33   19   20 1
    34   19   34 1
    35   19   35 1
    36   20   21 ar
    37   21   36 1
    38   22   23 1
    39   22   37 1
    40   22   38 1
    41   23   39 1
    42   23   40 1
##########                 Name:            smyd3_155
##########          Protonation:                 none
##########               SMILES:   CCC[NH+]1CCC(NC(=O)C2=CC3=C(C=C2Cl)NC(=O)C3)CC1
##########            Long Name:   NO_LONG_NAME
##########          FlexRecCode: 1
##########               Number:                  408
##########   Ligand Source File: /proj/zinc22/users/x_andlu/OGG1/revisions/docking/targets/smyd3/db2gen/split_par
##########                 Rank:                    1
##########               Setnum:                   25
##########             Matchnum:                   20
##########                Cloud:                    1
##########        Electrostatic:           -25.044422
##########                 Gist:             0.000000
##########        Van der Waals:           -32.111950
##########  Ligand Polar Desolv:             9.691825
########## Ligand Apolar Desolv:            -2.423418
##########      Internal Energy:             0.000000
##########      Receptor Energy:             0.000000
########## Receptor Desolvation:             0.000000
########## Receptor Hydrophobic:             0.000000
##########         Total Energy:           -49.887962
##########        Ligand Charge:             1.000000
##########            Arbitrary:    +999.9990
##########        Ligand Energy:             0.000000

@<TRIPOS>MOLECULE
smyd3_155      none
   46    48     0     0     0
SMALL
USER_CHARGES

@<TRIPOS>ATOM
      1 C1         19.7083   -2.1680   16.9839 C.3       1 <0>        -0.1600
      2 C2         19.9744   -1.9036   15.5006 C.3       1 <0>        -0.1500
      3 C3         20.5377   -0.4916   15.3272 C.3       1 <0>        -0.0100
      4 N1         19.5669    0.4882   15.8327 N.4       1 <0>        -0.3800
      5 H1         19.1461    0.1356   16.6794 H         1 <0>         0.4200
      6 C4         20.2546    1.7527   16.1199 C.3       1 <0>        -0.0000
      7 C5         19.2640    2.7511   16.7227 C.3       1 <0>        -0.1600
      8 C6         18.1286    3.0005   15.7259 C.3       1 <0>         0.1400
      9 N2         17.1373    3.8966   16.3265 N.am      1 <0>        -0.7300
     10 C7         16.0418    4.2545   15.6279 C.2       1 <0>         0.5700
     11 O1         15.8762    3.8338   14.4991 O.2       1 <0>        -0.5000
     12 C8         15.0436    5.1569   16.2327 C.ar      1 <0>        -0.1700
     13 C9         14.7463    6.3838   15.6304 C.ar      1 <0>        -0.0200
     14 C10        13.8123    7.2137   16.1977 C.ar      1 <0>        -0.1500
     15 C11        13.1510    6.8543   17.3691 C.ar      1 <0>         0.2000
     16 C12        13.4476    5.6296   17.9700 C.ar      1 <0>        -0.1400
     17 C13        14.3830    4.7894   17.4100 C.ar      1 <0>         0.0600
     18 Cl1        14.7438    3.2691   18.1664 Cl        1 <0>        -0.0100
     19 N3         12.2593    7.8542   17.7434 N.am      1 <0>        -0.6600
     20 C14        12.2670    8.8919   16.8903 C.2       1 <0>         0.5300
     21 O2         11.5920    9.8962   16.9718 O.2       1 <0>        -0.4800
     22 C15        13.2759    8.5723   15.8077 C.3       1 <0>        -0.1100
     23 C16        17.4658    1.6653   15.3749 C.3       1 <0>        -0.1600
     24 C17        18.5235    0.7066   14.8237 C.3       1 <0>        -0.0100
     25 H2         19.3071   -3.1740   17.1072 H         1 <0>         0.0700
     26 H3         20.6401   -2.0776   17.5421 H         1 <0>         0.0800
     27 H4         18.9879   -1.4411   17.3591 H         1 <0>         0.0700
     28 H5         19.0426   -1.9942   14.9424 H         1 <0>         0.0900
     29 H6         20.6948   -2.6306   15.1256 H         1 <0>         0.0900
     30 H7         20.7273   -0.3033   14.2705 H         1 <0>         0.1300
     31 H8         21.4695   -0.4011   15.8853 H         1 <0>         0.1300
     32 H9         20.6643    2.1609   15.1959 H         1 <0>         0.1300
     33 H10        21.0642    1.5726   16.8272 H         1 <0>         0.1400
     34 H11        19.7762    3.6899   16.9335 H         1 <0>         0.1200
     35 H12        18.8539    2.3447   17.6473 H         1 <0>         0.0900
     36 H13        18.5314    3.4564   14.8214 H         1 <0>         0.1100
     37 H14        17.2695    4.2323   17.2268 H         1 <0>         0.4000
     38 H15        15.2502    6.6770   14.7213 H         1 <0>         0.1400
     39 H16        12.9411    5.3402   18.8789 H         1 <0>         0.1500
     40 H17        11.6955    7.8074   18.5313 H         1 <0>         0.4200
     41 H18        14.0767    9.3117   15.8013 H         1 <0>         0.1300
     42 H19        12.7893    8.5258   14.8335 H         1 <0>         0.1300
     43 H20        17.0175    1.2351   16.2704 H         1 <0>         0.0900
     44 H21        16.6937    1.8286   14.6231 H         1 <0>         0.1200
     45 H22        18.9701    1.1369   13.9274 H         1 <0>         0.1300
     46 H23        18.0550   -0.2456   14.5744 H         1 <0>         0.1400
@<TRIPOS>BOND
     1    1    2 1
     2    1   25 1
     3    1   26 1
     4    1   27 1
     5    2    3 1
     6    2   28 1
     7    2   29 1
     8    3    4 1
     9    3   30 1
    10    3   31 1
    11    4    5 1
    12    4   24 1
    13    4    6 1
    14    6    7 1
    15    6   32 1
    16    6   33 1
    17    7    8 1
    18    7   34 1
    19    7   35 1
    20    8    9 1
    21    8   23 1
    22    8   36 1
    23    9   10 am
    24    9   37 1
    25   10   11 2
    26   10   12 1
    27   12   17 ar
    28   12   13 ar
    29   13   14 ar
    30   13   38 1
    31   14   22 1
    32   14   15 ar
    33   15   16 ar
    34   15   19 1
    35   16   17 ar
    36   16   39 1
    37   17   18 1
    38   19   20 am
    39   19   40 1
    40   20   21 2
    41   20   22 1
    42   22   41 1
    43   22   42 1
    44   23   24 1
    45   23   43 1
    46   23   44 1
    47   24   45 1
    48   24   46 1
##########                 Name:            smyd3_156
##########          Protonation:                 none
##########               SMILES:   C=CC[NH+]1CCC(NC(=O)C2=CC3=C(C=C2Cl)NC(=O)C3)CC1
##########            Long Name:   NO_LONG_NAME
##########          FlexRecCode: 1
##########               Number:                  412
##########   Ligand Source File: /proj/zinc22/users/x_andlu/OGG1/revisions/docking/targets/smyd3/db2gen/split_par
##########                 Rank:                    1
##########               Setnum:                    6
##########             Matchnum:                   16
##########                Cloud:                    1
##########        Electrostatic:           -25.278187
##########                 Gist:             0.000000
##########        Van der Waals:           -32.805283
##########  Ligand Polar Desolv:             9.159027
########## Ligand Apolar Desolv:            -2.452197
##########      Internal Energy:             0.000000
##########      Receptor Energy:             0.000000
########## Receptor Desolvation:             0.000000
########## Receptor Hydrophobic:             0.000000
##########         Total Energy:           -51.376640
##########        Ligand Charge:             1.000000
##########            Arbitrary:    +999.9990
##########        Ligand Energy:             0.000000

@<TRIPOS>MOLECULE
smyd3_156      none
   44    46     0     0     0
SMALL
USER_CHARGES

@<TRIPOS>ATOM
      1 C1         19.8551   -2.7814   14.8832 C.2       1 <0>        -0.1100
      2 C2         20.2179   -1.7944   15.6645 C.2       1 <0>        -0.2400
      3 C3         20.4904   -0.4321   15.0804 C.3       1 <0>         0.0300
      4 N1         19.5771    0.5496   15.6805 N.4       1 <0>        -0.3800
      5 H1         19.4770    0.3545   16.6654 H         1 <0>         0.4200
      6 C4         20.1270    1.8990   15.5039 C.3       1 <0>        -0.0000
      7 C5         19.2205    2.9181   16.1976 C.3       1 <0>        -0.1600
      8 C6         17.8204    2.8509   15.5809 C.3       1 <0>         0.1400
      9 N2         16.9275    3.7699   16.2911 N.am      1 <0>        -0.7300
     10 C7         15.8963    4.3445   15.6410 C.2       1 <0>         0.5700
     11 O1         15.7069    4.1002   14.4650 O.2       1 <0>        -0.5000
     12 C8         14.9972    5.2700   16.3563 C.ar      1 <0>        -0.1700
     13 C9         14.8576    6.5926   15.9230 C.ar      1 <0>        -0.0200
     14 C10        14.0146    7.4441   16.5917 C.ar      1 <0>        -0.1500
     15 C11        13.2912    7.0128   17.7004 C.ar      1 <0>         0.2000
     16 C12        13.4304    5.6927   18.1327 C.ar      1 <0>        -0.1400
     17 C13        14.2734    4.8298   17.4698 C.ar      1 <0>         0.0600
     18 Cl1        14.4386    3.1905   18.0166 Cl        1 <0>        -0.0100
     19 N3         12.5141    8.0523   18.2009 N.am      1 <0>        -0.6600
     20 C14        12.6607    9.1861   17.4954 C.2       1 <0>         0.5300
     21 O2         12.1056   10.2433   17.7076 O.2       1 <0>        -0.4800
     22 C15        13.6484    8.8963   16.3852 C.3       1 <0>        -0.1100
     23 C16        17.2859    1.4210   15.7027 C.3       1 <0>        -0.1600
     24 C17        18.2650    0.4572   15.0289 C.3       1 <0>        -0.0000
     25 H2         19.7515   -2.6189   13.8206 H         1 <0>         0.1100
     26 H3         19.6600   -3.7576   15.3018 H         1 <0>         0.1200
     27 H4         20.3216   -1.9569   16.7270 H         1 <0>         0.1300
     28 H5         20.3348   -0.4615   14.0019 H         1 <0>         0.1300
     29 H6         21.5209   -0.1459   15.2911 H         1 <0>         0.1400
     30 H7         20.1860    2.1305   14.4404 H         1 <0>         0.1300
     31 H8         21.1246    1.9439   15.9409 H         1 <0>         0.1400
     32 H9         19.6295    3.9196   16.0639 H         1 <0>         0.1200
     33 H10        19.1611    2.6876   17.2614 H         1 <0>         0.0900
     34 H11        17.8717    3.1324   14.5290 H         1 <0>         0.1100
     35 H12        17.0787    3.9649   17.2292 H         1 <0>         0.4000
     36 H13        15.4114    6.9425   15.0644 H         1 <0>         0.1400
     37 H14        12.8744    5.3469   18.9915 H         1 <0>         0.1500
     38 H15        11.9320    7.9682   18.9723 H         1 <0>         0.4200
     39 H16        14.5297    9.5302   16.4827 H         1 <0>         0.1300
     40 H17        13.1806    9.0376   15.4109 H         1 <0>         0.1300
     41 H18        17.1852    1.1586   16.7558 H         1 <0>         0.0900
     42 H19        16.3132    1.3532   15.2154 H         1 <0>         0.1200
     43 H20        18.3637    0.7193   13.9756 H         1 <0>         0.1300
     44 H21        17.8879   -0.5619   15.1154 H         1 <0>         0.1400
@<TRIPOS>BOND
     1    1    2 2
     2    1   25 1
     3    1   26 1
     4    2    3 1
     5    2   27 1
     6    3    4 1
     7    3   28 1
     8    3   29 1
     9    4    5 1
    10    4   24 1
    11    4    6 1
    12    6    7 1
    13    6   30 1
    14    6   31 1
    15    7    8 1
    16    7   32 1
    17    7   33 1
    18    8    9 1
    19    8   23 1
    20    8   34 1
    21    9   10 am
    22    9   35 1
    23   10   11 2
    24   10   12 1
    25   12   17 ar
    26   12   13 ar
    27   13   14 ar
    28   13   36 1
    29   14   22 1
    30   14   15 ar
    31   15   16 ar
    32   15   19 1
    33   16   17 ar
    34   16   37 1
    35   17   18 1
    36   19   20 am
    37   19   38 1
    38   20   21 2
    39   20   22 1
    40   22   39 1
    41   22   40 1
    42   23   24 1
    43   23   41 1
    44   23   42 1
    45   24   43 1
    46   24   44 1
##########                 Name:            smyd3_157
##########          Protonation:                 none
##########               SMILES:   O=C1CC2=CC(C(=O)NC3CC[NH+](CCF)CC3)=C(Cl)C=C2N1
##########            Long Name:   NO_LONG_NAME
##########          FlexRecCode: 1
##########               Number:                  413
##########   Ligand Source File: /proj/zinc22/users/x_andlu/OGG1/revisions/docking/targets/smyd3/db2gen/split_par
##########                 Rank:                    1
##########               Setnum:                   22
##########             Matchnum:                   19
##########                Cloud:                    1
##########        Electrostatic:           -25.376188
##########                 Gist:             0.000000
##########        Van der Waals:           -32.558254
##########  Ligand Polar Desolv:            10.011217
########## Ligand Apolar Desolv:            -2.316007
##########      Internal Energy:             0.000000
##########      Receptor Energy:             0.000000
########## Receptor Desolvation:             0.000000
########## Receptor Hydrophobic:             0.000000
##########         Total Energy:           -50.239231
##########        Ligand Charge:             1.000000
##########            Arbitrary:    +999.9990
##########        Ligand Energy:             0.000000

@<TRIPOS>MOLECULE
smyd3_157      none
   43    45     0     0     0
SMALL
USER_CHARGES

@<TRIPOS>ATOM
      1 O1         11.5957    9.8645   16.8944 O.2       1 <0>        -0.4800
      2 C1         12.2663    8.8568   16.8210 C.2       1 <0>         0.5300
      3 C2         13.2620    8.5169   15.7325 C.3       1 <0>        -0.1100
      4 C3         13.7987    7.1628   16.1376 C.ar      1 <0>        -0.1500
      5 C4         14.7232    6.3214   15.5731 C.ar      1 <0>        -0.0200
      6 C5         15.0234    5.1027   16.1913 C.ar      1 <0>        -0.1700
      7 C6         16.0118    4.1875   15.5895 C.2       1 <0>         0.5700
      8 O2         15.8321    3.7498   14.4694 O.2       1 <0>        -0.5000
      9 N1         17.1139    3.8368   16.2813 N.am      1 <0>        -0.7300
     10 C7         18.0955    2.9281   15.6837 C.3       1 <0>         0.1400
     11 C8         17.4245    1.5898   15.3612 C.3       1 <0>        -0.1600
     12 C9         18.4727    0.6190   14.8132 C.3       1 <0>        -0.0100
     13 N2         19.5268    0.4128   15.8139 N.4       1 <0>        -0.3800
     14 H1         19.1144    0.0750   16.6705 H         1 <0>         0.4300
     15 C10        20.4885   -0.5781   15.3128 C.3       1 <0>        -0.0400
     16 C11        19.9248   -1.9854   15.5189 C.3       1 <0>         0.0400
     17 F1         18.7189   -2.1117   14.8209 F         1 <0>        -0.1800
     18 C12        20.2217    1.6794   16.0733 C.3       1 <0>         0.0000
     19 C13        19.2412    2.6904   16.6715 C.3       1 <0>        -0.1600
     20 C14        14.3752    4.7559   17.3812 C.ar      1 <0>         0.0600
     21 Cl1        14.7390    3.2462   18.1570 Cl        1 <0>        -0.0100
     22 C15        13.4490    5.6086   17.9390 C.ar      1 <0>        -0.1400
     23 C16        13.1493    6.8241   17.3222 C.ar      1 <0>         0.2000
     24 N3         12.2649    7.8327   17.6905 N.am      1 <0>        -0.6600
     25 H2         14.0648    9.2537   15.7054 H         1 <0>         0.1300
     26 H3         12.7643    8.4567   14.7645 H         1 <0>         0.1300
     27 H4         15.2178    6.5986   14.6539 H         1 <0>         0.1400
     28 H5         17.2574    4.1861   17.1748 H         1 <0>         0.4000
     29 H6         18.4895    3.3684   14.7677 H         1 <0>         0.1100
     30 H7         16.9849    1.1752   16.2683 H         1 <0>         0.0900
     31 H8         16.6444    1.7440   14.6156 H         1 <0>         0.1200
     32 H9         18.9105    1.0338   13.9053 H         1 <0>         0.1400
     33 H10        17.9983   -0.3353   14.5842 H         1 <0>         0.1400
     34 H11        20.6643   -0.4091   14.2505 H         1 <0>         0.1400
     35 H12        21.4280   -0.4798   15.8566 H         1 <0>         0.1400
     36 H13        20.6385   -2.7207   15.1471 H         1 <0>         0.1000
     37 H14        19.7491   -2.1546   16.5812 H         1 <0>         0.1000
     38 H15        20.6223    2.0716   15.1385 H         1 <0>         0.1400
     39 H16        21.0386    1.5076   16.7742 H         1 <0>         0.1400
     40 H17        19.7588    3.6307   16.8618 H         1 <0>         0.1200
     41 H18        18.8403    2.2999   17.6069 H         1 <0>         0.1000
     42 H19        12.9521    5.3353   18.8581 H         1 <0>         0.1500
     43 H20        11.7096    7.8000   18.4851 H         1 <0>         0.4200
@<TRIPOS>BOND
     1    1    2 2
     2    2   24 am
     3    2    3 1
     4    3    4 1
     5    3   25 1
     6    3   26 1
     7    4   23 ar
     8    4    5 ar
     9    5    6 ar
    10    5   27 1
    11    6    7 1
    12    6   20 ar
    13    7    8 2
    14    7    9 am
    15    9   10 1
    16    9   28 1
    17   10   19 1
    18   10   11 1
    19   10   29 1
    20   11   12 1
    21   11   30 1
    22   11   31 1
    23   12   13 1
    24   12   32 1
    25   12   33 1
    26   13   14 1
    27   13   15 1
    28   13   18 1
    29   15   16 1
    30   15   34 1
    31   15   35 1
    32   16   17 1
    33   16   36 1
    34   16   37 1
    35   18   19 1
    36   18   38 1
    37   18   39 1
    38   19   40 1
    39   19   41 1
    40   20   21 1
    41   20   22 ar
    42   22   23 ar
    43   22   42 1
    44   23   24 1
    45   24   43 1
##########                 Name:            smyd3_158
##########          Protonation:                 none
##########               SMILES:   O=C1CC2=CC(C(=O)NC3CC[NH+](CCO)CC3)=C(Cl)C=C2N1
##########            Long Name:   NO_LONG_NAME
##########          FlexRecCode: 1
##########               Number:                  419
##########   Ligand Source File: /proj/zinc22/users/x_andlu/OGG1/revisions/docking/targets/smyd3/db2gen/split_par
##########                 Rank:                    1
##########               Setnum:                   66
##########             Matchnum:                    1
##########                Cloud:                    1
##########        Electrostatic:           -27.123985
##########                 Gist:             0.000000
##########        Van der Waals:           -31.962227
##########  Ligand Polar Desolv:             9.583899
########## Ligand Apolar Desolv:            -0.930032
##########      Internal Energy:             0.000000
##########      Receptor Energy:             0.000000
########## Receptor Desolvation:             0.000000
########## Receptor Hydrophobic:             0.000000
##########         Total Energy:           -50.432343
##########        Ligand Charge:             1.000000
##########            Arbitrary:    +999.9990
##########        Ligand Energy:             0.000000

@<TRIPOS>MOLECULE
smyd3_158      none
   44    46     0     0     0
SMALL
USER_CHARGES

@<TRIPOS>ATOM
      1 O1         11.6558    9.9083   16.9561 O.2       1 <0>        -0.4800
      2 C1         12.3269    8.9017   16.8712 C.2       1 <0>         0.5300
      3 C2         13.4397    8.6445   15.8773 C.3       1 <0>        -0.1100
      4 C3         13.9216    7.2531   16.2201 C.ar      1 <0>        -0.1500
      5 C4         14.9018    6.4516   15.6928 C.ar      1 <0>        -0.0200
      6 C5         15.1249    5.1797   16.2315 C.ar      1 <0>        -0.1700
      7 C6         16.1725    4.3072   15.6678 C.2       1 <0>         0.5700
      8 O2         16.1207    3.9714   14.5003 O.2       1 <0>        -0.5000
      9 N1         17.1867    3.8823   16.4468 N.am      1 <0>        -0.7300
     10 C7         18.2269    3.0157   15.8871 C.3       1 <0>         0.1400
     11 C8         17.5923    1.7200   15.3734 C.3       1 <0>        -0.1600
     12 C9         18.6929    0.7862   14.8650 C.3       1 <0>        -0.0000
     13 N2         19.6245    0.4791   15.9570 N.4       1 <0>        -0.3800
     14 H1         19.1153    0.0735   16.7279 H         1 <0>         0.4300
     15 C10        20.6336   -0.4775   15.4834 C.3       1 <0>        -0.0100
     16 C11        20.0447   -1.8896   15.4987 C.3       1 <0>         0.0400
     17 O3         18.9025   -1.9388   14.6416 O.3       1 <0>        -0.5800
     18 C12        20.2898    1.7085   16.4047 C.3       1 <0>        -0.0100
     19 C13        19.2511    2.6768   16.9742 C.3       1 <0>        -0.1600
     20 C14        14.3433    4.7395   17.3046 C.ar      1 <0>         0.0600
     21 Cl1        14.6106    3.1631   17.9807 Cl        1 <0>        -0.0100
     22 C15        13.3623    5.5528   17.8261 C.ar      1 <0>        -0.1400
     23 C16        13.1395    6.8214   17.2887 C.ar      1 <0>         0.2000
     24 N3         12.2223    7.8060   17.6412 N.am      1 <0>        -0.6600
     25 H2         14.2428    9.3699   16.0069 H         1 <0>         0.1300
     26 H3         13.0560    8.6757   14.8576 H         1 <0>         0.1300
     27 H4         15.4995    6.8011   14.8639 H         1 <0>         0.1400
     28 H5         17.2281    4.1501   17.3782 H         1 <0>         0.4000
     29 H6         18.7249    3.5287   15.0643 H         1 <0>         0.1100
     30 H7         17.0501    1.2339   16.1845 H         1 <0>         0.0900
     31 H8         16.9036    1.9494   14.5604 H         1 <0>         0.1200
     32 H9         19.2335    1.2726   14.0529 H         1 <0>         0.1300
     33 H10        18.2443   -0.1378   14.5000 H         1 <0>         0.1300
     34 H11        20.9308   -0.2189   14.4670 H         1 <0>         0.1400
     35 H12        21.5049   -0.4400   16.1371 H         1 <0>         0.1400
     36 H13        20.7936   -2.5994   15.1473 H         1 <0>         0.1000
     37 H14        19.7477   -2.1482   16.5151 H         1 <0>         0.0700
     38 H15        19.0931   -1.7193   13.7193 H         1 <0>         0.4100
     39 H16        20.7962    2.1752   15.5598 H         1 <0>         0.1300
     40 H17        21.0203    1.4649   17.1760 H         1 <0>         0.1300
     41 H18        19.7468    3.5897   17.3043 H         1 <0>         0.1200
     42 H19        18.7439    2.2118   17.8196 H         1 <0>         0.1000
     43 H20        12.7623    5.2073   18.6550 H         1 <0>         0.1500
     44 H21        11.5795    7.7118   18.3614 H         1 <0>         0.4200
@<TRIPOS>BOND
     1    1    2 2
     2    2   24 am
     3    2    3 1
     4    3    4 1
     5    3   25 1
     6    3   26 1
     7    4   23 ar
     8    4    5 ar
     9    5    6 ar
    10    5   27 1
    11    6    7 1
    12    6   20 ar
    13    7    8 2
    14    7    9 am
    15    9   10 1
    16    9   28 1
    17   10   19 1
    18   10   11 1
    19   10   29 1
    20   11   12 1
    21   11   30 1
    22   11   31 1
    23   12   13 1
    24   12   32 1
    25   12   33 1
    26   13   14 1
    27   13   15 1
    28   13   18 1
    29   15   16 1
    30   15   34 1
    31   15   35 1
    32   16   17 1
    33   16   36 1
    34   16   37 1
    35   17   38 1
    36   18   19 1
    37   18   39 1
    38   18   40 1
    39   19   41 1
    40   19   42 1
    41   20   21 1
    42   20   22 ar
    43   22   23 ar
    44   22   43 1
    45   23   24 1
    46   24   44 1
##########                 Name:            smyd3_161
##########          Protonation:                 none
##########               SMILES:   O=C1CC2=C(C=CC(C(=O)NC3CCN(CC(F)F)CC3)=C2)N1
##########            Long Name:   NO_LONG_NAME
##########          FlexRecCode: 1
##########               Number:                  425
##########   Ligand Source File: /proj/zinc22/users/x_andlu/OGG1/revisions/docking/targets/smyd3/db2gen/split_par
##########                 Rank:                    1
##########               Setnum:                   13
##########             Matchnum:                   19
##########                Cloud:                    1
##########        Electrostatic:           -19.774031
##########                 Gist:             0.000000
##########        Van der Waals:           -30.594704
##########  Ligand Polar Desolv:             6.054403
########## Ligand Apolar Desolv:            -1.427945
##########      Internal Energy:             0.000000
##########      Receptor Energy:             0.000000
########## Receptor Desolvation:             0.000000
########## Receptor Hydrophobic:             0.000000
##########         Total Energy:           -45.742275
##########        Ligand Charge:             0.000000
##########            Arbitrary:    +999.9990
##########        Ligand Energy:             0.000000

@<TRIPOS>MOLECULE
smyd3_161      none
   42    44     0     0     0
SMALL
USER_CHARGES

@<TRIPOS>ATOM
      1 O1         11.2680    9.7149   16.9068 O.2       1 <0>        -0.4900
      2 C1         12.0132    8.7597   16.8509 C.2       1 <0>         0.5300
      3 C2         12.9841    8.4411   15.7339 C.3       1 <0>        -0.1200
      4 C3         13.6469    7.1566   16.1767 C.ar      1 <0>        -0.1500
      5 C4         13.0764    6.8304   17.4073 C.ar      1 <0>         0.1700
      6 C5         13.4985    5.6741   18.0674 C.ar      1 <0>        -0.1500
      7 C6         14.4626    4.8689   17.5088 C.ar      1 <0>        -0.0500
      8 C7         15.0281    5.2008   16.2745 C.ar      1 <0>        -0.1600
      9 C8         16.0631    4.3363   15.6745 C.2       1 <0>         0.5700
     10 O2         16.2061    4.3073   14.4675 O.2       1 <0>        -0.5400
     11 N1         16.8498    3.5793   16.4647 N.am      1 <0>        -0.7200
     12 C9         17.8773    2.7214   15.8692 C.3       1 <0>         0.1400
     13 C10        17.2845    1.3402   15.5774 C.3       1 <0>        -0.1300
     14 C11        18.3781    0.4299   15.0137 C.3       1 <0>         0.0600
     15 N2         19.4740    0.3181   15.9846 N.3       1 <0>        -0.5300
     16 C12        20.4775   -0.6564   15.5359 C.3       1 <0>         0.0000
     17 C13        19.9885   -2.0722   15.8477 C.3       1 <0>         0.2700
     18 F1         20.9441   -3.0004   15.4205 F         1 <0>        -0.2100
     19 F2         19.7933   -2.2050   17.2266 F         1 <0>        -0.1900
     20 C14        20.0896    1.6260   16.2434 C.3       1 <0>         0.0400
     21 C15        19.0475    2.5715   16.8452 C.3       1 <0>        -0.1200
     22 C16        14.6065    6.3582   15.6122 C.ar      1 <0>        -0.0000
     23 N3         12.1315    7.7853   17.7681 N.am      1 <0>        -0.6600
     24 H1         12.4510    8.2920   14.7949 H         1 <0>         0.1300
     25 H2         13.7225    9.2364   15.6310 H         1 <0>         0.1300
     26 H3         13.0653    5.4113   19.0211 H         1 <0>         0.1400
     27 H4         14.7838    3.9764   18.0253 H         1 <0>         0.1400
     28 H5         16.7358    3.6025   17.4278 H         1 <0>         0.4000
     29 H6         18.2324    3.1690   14.9409 H         1 <0>         0.0900
     30 H7         16.8934    0.9098   16.4992 H         1 <0>         0.0800
     31 H8         16.4788    1.4364   14.8495 H         1 <0>         0.0800
     32 H9         18.7583    0.8533   14.0839 H         1 <0>         0.0400
     33 H10        17.9628   -0.5590   14.8193 H         1 <0>         0.0800
     34 H11        20.6296   -0.5529   14.4614 H         1 <0>         0.1100
     35 H12        21.4184   -0.4743   16.0551 H         1 <0>         0.0700
     36 H13        19.0476   -2.2541   15.3283 H         1 <0>         0.1100
     37 H14        20.4617    2.0438   15.3080 H         1 <0>         0.0400
     38 H15        20.9173    1.5057   16.9422 H         1 <0>         0.1000
     39 H16        19.5006    3.5468   17.0228 H         1 <0>         0.0800
     40 H17        18.6849    2.1611   17.7877 H         1 <0>         0.0800
     41 H18        15.0372    6.6236   14.6581 H         1 <0>         0.1400
     42 H19        11.6165    7.7517   18.5894 H         1 <0>         0.4200
@<TRIPOS>BOND
     1    1    2 2
     2    2   23 am
     3    2    3 1
     4    3    4 1
     5    3   24 1
     6    3   25 1
     7    4   22 ar
     8    4    5 ar
     9    5    6 ar
    10    5   23 1
    11    6    7 ar
    12    6   26 1
    13    7    8 ar
    14    7   27 1
    15    8    9 1
    16    8   22 ar
    17    9   10 2
    18    9   11 am
    19   11   12 1
    20   11   28 1
    21   12   21 1
    22   12   13 1
    23   12   29 1
    24   13   14 1
    25   13   30 1
    26   13   31 1
    27   14   15 1
    28   14   32 1
    29   14   33 1
    30   15   16 1
    31   15   20 1
    32   16   17 1
    33   16   34 1
    34   16   35 1
    35   17   18 1
    36   17   19 1
    37   17   36 1
    38   20   21 1
    39   20   37 1
    40   20   38 1
    41   21   39 1
    42   21   40 1
    43   22   41 1
    44   23   42 1
##########                 Name:            smyd3_166
##########          Protonation:                 none
##########               SMILES:   O=C1CC2=C(C=CC(C(=O)NC3CC[NH+](CCCF)CC3)=C2)N1
##########            Long Name:   NO_LONG_NAME
##########          FlexRecCode: 1
##########               Number:                  437
##########   Ligand Source File: /proj/zinc22/users/x_andlu/OGG1/revisions/docking/targets/smyd3/db2gen/split_par
##########                 Rank:                    1
##########               Setnum:                   28
##########             Matchnum:                   20
##########                Cloud:                    1
##########        Electrostatic:           -29.311508
##########                 Gist:             0.000000
##########        Van der Waals:           -29.887527
##########  Ligand Polar Desolv:             9.804171
########## Ligand Apolar Desolv:            -2.323232
##########      Internal Energy:             0.000000
##########      Receptor Energy:             0.000000
########## Receptor Desolvation:             0.000000
########## Receptor Hydrophobic:             0.000000
##########         Total Energy:           -51.718098
##########        Ligand Charge:             1.000000
##########            Arbitrary:    +999.9990
##########        Ligand Energy:             0.000000

@<TRIPOS>MOLECULE
smyd3_166      none
   46    48     0     0     0
SMALL
USER_CHARGES

@<TRIPOS>ATOM
      1 O1         11.3543    9.7670   17.1123 O.2       1 <0>        -0.4800
      2 C1         12.0781    8.7992   17.0100 C.2       1 <0>         0.5300
      3 C2         12.9901    8.4777   15.8451 C.3       1 <0>        -0.1200
      4 C3         13.6484    7.1756   16.2408 C.ar      1 <0>        -0.1500
      5 C4         13.1295    6.8437   17.4926 C.ar      1 <0>         0.1900
      6 C5         13.5595    5.6711   18.1177 C.ar      1 <0>        -0.1500
      7 C6         14.4808    4.8554   17.5046 C.ar      1 <0>        -0.0500
      8 C7         14.9950    5.1934   16.2497 C.ar      1 <0>        -0.1800
      9 C8         15.9838    4.3177   15.5910 C.2       1 <0>         0.5700
     10 O2         16.0695    4.3020   14.3783 O.2       1 <0>        -0.5300
     11 N1         16.7917    3.5355   16.3340 N.am      1 <0>        -0.7300
     12 C9         17.7732    2.6663   15.6803 C.3       1 <0>         0.1400
     13 C10        17.1416    1.2993   15.4020 C.3       1 <0>        -0.1600
     14 C11        18.1947    0.3715   14.7922 C.3       1 <0>        -0.0100
     15 N2         19.3139    0.2135   15.7286 N.4       1 <0>        -0.3800
     16 H1         18.9677   -0.1379   16.6087 H         1 <0>         0.4200
     17 C12        20.2850   -0.7382   15.1726 C.3       1 <0>        -0.0100
     18 C13        19.7939   -2.1672   15.4138 C.3       1 <0>        -0.1900
     19 C14        20.8053   -3.1586   14.8346 C.3       1 <0>         0.0700
     20 F1         22.0441   -2.9795   15.4594 F         1 <0>        -0.2000
     21 C15        19.9694    1.5090   15.9445 C.3       1 <0>        -0.0000
     22 C16        18.9846    2.4805   16.5986 C.3       1 <0>        -0.1600
     23 C17        14.5655    6.3673   15.6224 C.ar      1 <0>         0.0000
     24 N3         12.2204    7.8109   17.9086 N.am      1 <0>        -0.6600
     25 H2         12.4112    8.3508   14.9302 H         1 <0>         0.1300
     26 H3         13.7376    9.2607   15.7176 H         1 <0>         0.1300
     27 H4         13.1660    5.4035   19.0872 H         1 <0>         0.1400
     28 H5         14.8081    3.9501   17.9943 H         1 <0>         0.1300
     29 H6         16.7233    3.5481   17.3016 H         1 <0>         0.4100
     30 H7         18.0934    3.1191   14.7420 H         1 <0>         0.1100
     31 H8         16.7755    0.8707   16.3349 H         1 <0>         0.0900
     32 H9         16.3123    1.4168   14.7045 H         1 <0>         0.1200
     33 H10        18.5599    0.8009   13.8592 H         1 <0>         0.1300
     34 H11        17.7479   -0.6025   14.5929 H         1 <0>         0.1400
     35 H12        20.3900   -0.5661   14.1015 H         1 <0>         0.1400
     36 H13        21.2502   -0.5987   15.6595 H         1 <0>         0.1400
     37 H14        19.6890   -2.3393   16.4849 H         1 <0>         0.1000
     38 H15        18.8287   -2.3067   14.9269 H         1 <0>         0.1000
     39 H16        20.4554   -4.1765   15.0065 H         1 <0>         0.0900
     40 H17        20.9103   -2.9865   13.7635 H         1 <0>         0.0900
     41 H18        20.2967    1.9141   14.9870 H         1 <0>         0.1300
     42 H19        20.8329    1.3741   16.5958 H         1 <0>         0.1400
     43 H20        19.4726    3.4423   16.7564 H         1 <0>         0.1200
     44 H21        18.6566    2.0773   17.5566 H         1 <0>         0.1000
     45 H22        14.9567    6.6375   14.6526 H         1 <0>         0.1500
     46 H23        11.7433    7.7757   18.7524 H         1 <0>         0.4200
@<TRIPOS>BOND
     1    1    2 2
     2    2   24 am
     3    2    3 1
     4    3    4 1
     5    3   25 1
     6    3   26 1
     7    4   23 ar
     8    4    5 ar
     9    5    6 ar
    10    5   24 1
    11    6    7 ar
    12    6   27 1
    13    7    8 ar
    14    7   28 1
    15    8    9 1
    16    8   23 ar
    17    9   10 2
    18    9   11 am
    19   11   12 1
    20   11   29 1
    21   12   22 1
    22   12   13 1
    23   12   30 1
    24   13   14 1
    25   13   31 1
    26   13   32 1
    27   14   15 1
    28   14   33 1
    29   14   34 1
    30   15   16 1
    31   15   17 1
    32   15   21 1
    33   17   18 1
    34   17   35 1
    35   17   36 1
    36   18   19 1
    37   18   37 1
    38   18   38 1
    39   19   20 1
    40   19   39 1
    41   19   40 1
    42   21   22 1
    43   21   41 1
    44   21   42 1
    45   22   43 1
    46   22   44 1
    47   23   45 1
    48   24   46 1
##########                 Name:            smyd3_169
##########          Protonation:                 none
##########               SMILES:   CC[N@@H+]1CCC(N(C)C(=O)C2=CC=C3NC(=O)CC3=C2)C(C)C1
##########            Long Name:   NO_LONG_NAME
##########          FlexRecCode: 1
##########               Number:                  450
##########   Ligand Source File: /proj/zinc22/users/x_andlu/OGG1/revisions/docking/targets/smyd3/db2gen/split_par
##########                 Rank:                    1
##########               Setnum:                    8
##########             Matchnum:                    1
##########                Cloud:                    1
##########        Electrostatic:           -22.630915
##########                 Gist:             0.000000
##########        Van der Waals:           -32.005844
##########  Ligand Polar Desolv:             9.356091
########## Ligand Apolar Desolv:            -2.768952
##########      Internal Energy:             0.000000
##########      Receptor Energy:             0.000000
########## Receptor Desolvation:             0.000000
########## Receptor Hydrophobic:             0.000000
##########         Total Energy:           -48.049618
##########        Ligand Charge:             1.000000
##########            Arbitrary:    +999.9990
##########        Ligand Energy:             0.000000

@<TRIPOS>MOLECULE
smyd3_169      none
   49    51     0     0     0
SMALL
USER_CHARGES

@<TRIPOS>ATOM
      1 C1         19.8169   -1.8648   15.2642 C.3       1 <0>        -0.1900
      2 C2         20.3090   -0.4456   15.5552 C.3       1 <0>        -0.0100
      3 N1         19.1620    0.4143   15.8759 N.4       1 <0>        -0.3900
      4 H1         18.6861    0.0497   16.6876 H         1 <0>         0.4200
      5 C3         18.2366    0.4357   14.7367 C.3       1 <0>        -0.0100
      6 C4         17.0009    1.2655   15.0917 C.3       1 <0>        -0.1600
      7 C5         17.4328    2.6954   15.4296 C.3       1 <0>         0.1500
      8 N2         16.2643    3.4747   15.8458 N.am      1 <0>        -0.6100
      9 C6         14.9412    2.8469   15.8847 C.3       1 <0>         0.0600
     10 C7         16.4063    4.7692   16.1928 C.2       1 <0>         0.5700
     11 O1         17.5045    5.2902   16.1605 O.2       1 <0>        -0.5200
     12 C8         15.2290    5.5544   16.6121 C.ar      1 <0>        -0.1700
     13 C9         14.4805    5.1607   17.7244 C.ar      1 <0>        -0.0200
     14 C10        13.3841    5.8930   18.1154 C.ar      1 <0>        -0.1400
     15 C11        13.0088    7.0346   17.4046 C.ar      1 <0>         0.1800
     16 N3         11.9564    7.9217   17.6055 N.am      1 <0>        -0.6600
     17 C12        11.9363    8.9068   16.6924 C.2       1 <0>         0.5300
     18 O2         11.1330    9.8131   16.6284 O.2       1 <0>        -0.4900
     19 C13        13.1044    8.6731   15.7582 C.3       1 <0>        -0.1200
     20 C14        13.7587    7.4212   16.2968 C.ar      1 <0>        -0.1500
     21 C15        14.8547    6.6982   15.8991 C.ar      1 <0>        -0.0400
     22 C16        18.4542    2.6552   16.5699 C.3       1 <0>        -0.1300
     23 C17        17.7969    2.0763   17.8244 C.3       1 <0>        -0.1600
     24 C18        19.6359    1.7745   16.1582 C.3       1 <0>         0.0000
     25 H2         20.6681   -2.5029   15.0263 H         1 <0>         0.0800
     26 H3         19.3023   -2.2578   16.1411 H         1 <0>         0.0800
     27 H4         19.1300   -1.8448   14.4181 H         1 <0>         0.1100
     28 H5         20.8239   -0.0526   14.6786 H         1 <0>         0.1300
     29 H6         20.9959   -0.4656   16.4014 H         1 <0>         0.1300
     30 H7         18.7340    0.8784   13.8735 H         1 <0>         0.1300
     31 H8         17.9330   -0.5832   14.4966 H         1 <0>         0.1400
     32 H9         16.5019    0.8227   15.9536 H         1 <0>         0.1000
     33 H10        16.3166    1.2828   14.2434 H         1 <0>         0.1200
     34 H11        17.8847    3.1567   14.5515 H         1 <0>         0.1000
     35 H12        14.2023    3.5767   16.2157 H         1 <0>         0.0700
     36 H13        14.6787    2.4904   14.8887 H         1 <0>         0.0800
     37 H14        14.9579    2.0065   16.5787 H         1 <0>         0.0900
     38 H15        14.7642    4.2787   18.2792 H         1 <0>         0.1400
     39 H16        12.8104    5.5832   18.9764 H         1 <0>         0.1400
     40 H17        11.3101    7.8384   18.3241 H         1 <0>         0.4200
     41 H18        12.7527    8.5123   14.7391 H         1 <0>         0.1300
     42 H19        13.7979    9.5133   15.7960 H         1 <0>         0.1300
     43 H20        15.4267    7.0112   15.0380 H         1 <0>         0.1400
     44 H21        18.8080    3.6652   16.7774 H         1 <0>         0.1300
     45 H22        18.5244    2.0480   18.6357 H         1 <0>         0.0500
     46 H23        16.9533    2.7026   18.1145 H         1 <0>         0.0800
     47 H24        17.4448    1.0659   17.6167 H         1 <0>         0.0800
     48 H25        20.1033    2.1887   15.2649 H         1 <0>         0.1300
     49 H26        20.3648    1.7436   16.9681 H         1 <0>         0.1300
@<TRIPOS>BOND
     1    1    2 1
     2    1   25 1
     3    1   26 1
     4    1   27 1
     5    2    3 1
     6    2   28 1
     7    2   29 1
     8    3    4 1
     9    3   24 1
    10    3    5 1
    11    5    6 1
    12    5   30 1
    13    5   31 1
    14    6    7 1
    15    6   32 1
    16    6   33 1
    17    7    8 1
    18    7   22 1
    19    7   34 1
    20    8    9 1
    21    8   10 am
    22    9   35 1
    23    9   36 1
    24    9   37 1
    25   10   11 2
    26   10   12 1
    27   12   21 ar
    28   12   13 ar
    29   13   14 ar
    30   13   38 1
    31   14   15 ar
    32   14   39 1
    33   15   20 ar
    34   15   16 1
    35   16   17 am
    36   16   40 1
    37   17   18 2
    38   17   19 1
    39   19   20 1
    40   19   41 1
    41   19   42 1
    42   20   21 ar
    43   21   43 1
    44   22   23 1
    45   22   24 1
    46   22   44 1
    47   23   45 1
    48   23   46 1
    49   23   47 1
    50   24   48 1
    51   24   49 1
##########                 Name:            smyd3_175
##########          Protonation:                 none
##########               SMILES:   CC[N@H+]1CCC(N(C)C(=O)C2=CC=C3NC(=O)CC3=C2)CC1C
##########            Long Name:   NO_LONG_NAME
##########          FlexRecCode: 1
##########               Number:                  464
##########   Ligand Source File: /proj/zinc22/users/x_andlu/OGG1/revisions/docking/targets/smyd3/db2gen/split_par
##########                 Rank:                    1
##########               Setnum:                   34
##########             Matchnum:                    9
##########                Cloud:                    1
##########        Electrostatic:           -20.646072
##########                 Gist:             0.000000
##########        Van der Waals:           -33.118484
##########  Ligand Polar Desolv:             8.407542
########## Ligand Apolar Desolv:            -2.451421
##########      Internal Energy:             0.000000
##########      Receptor Energy:             0.000000
########## Receptor Desolvation:             0.000000
########## Receptor Hydrophobic:             0.000000
##########         Total Energy:           -47.808434
##########        Ligand Charge:             1.000000
##########            Arbitrary:    +999.9990
##########        Ligand Energy:             0.000000

@<TRIPOS>MOLECULE
smyd3_175      none
   49    51     0     0     0
SMALL
USER_CHARGES

@<TRIPOS>ATOM
      1 C1         20.3042   -1.4105   15.0205 C.3       1 <0>        -0.1900
      2 C2         20.0206   -0.7860   16.3880 C.3       1 <0>        -0.0100
      3 N1         18.8090    0.0409   16.3069 N.4       1 <0>        -0.3800
      4 H1         18.0285   -0.5360   16.0310 H         1 <0>         0.4200
      5 C3         18.5357    0.6358   17.6206 C.3       1 <0>        -0.0100
      6 C4         17.2304    1.4323   17.5624 C.3       1 <0>        -0.1600
      7 C5         17.3624    2.5420   16.5152 C.3       1 <0>         0.1300
      8 N2         16.0909    3.2606   16.4001 N.am      1 <0>        -0.6100
      9 C6         14.8290    2.5622   16.6573 C.3       1 <0>         0.0500
     10 C7         16.0821    4.5640   16.0575 C.2       1 <0>         0.5700
     11 O1         16.9590    5.0109   15.3435 O.2       1 <0>        -0.5200
     12 C8         15.0080    5.4490   16.5489 C.ar      1 <0>        -0.1700
     13 C9         14.3955    5.1961   17.7791 C.ar      1 <0>        -0.0600
     14 C10        13.3951    6.0210   18.2369 C.ar      1 <0>        -0.1500
     15 C11        12.9827    7.1178   17.4775 C.ar      1 <0>         0.1800
     16 N3         12.0079    8.0779   17.7277 N.am      1 <0>        -0.6600
     17 C12        11.9132    8.9807   16.7375 C.2       1 <0>         0.5300
     18 O2         11.1512    9.9232   16.6927 O.2       1 <0>        -0.4800
     19 C13        12.9403    8.6046   15.6908 C.3       1 <0>        -0.1200
     20 C14        13.5971    7.3642   16.2525 C.ar      1 <0>        -0.1500
     21 C15        14.5961    6.5473   15.7866 C.ar      1 <0>        -0.0000
     22 C16        17.7208    1.9157   15.1645 C.3       1 <0>        -0.1500
     23 C17        19.0079    1.1012   15.3116 C.3       1 <0>         0.0300
     24 C18        20.1427    2.0209   15.7670 C.3       1 <0>        -0.1900
     25 H2         21.2031   -2.0241   15.0805 H         1 <0>         0.0800
     26 H3         19.4596   -2.0316   14.7223 H         1 <0>         0.0800
     27 H4         20.4522   -0.6206   14.2840 H         1 <0>         0.1100
     28 H5         20.8653   -0.1646   16.6859 H         1 <0>         0.1300
     29 H6         19.8729   -1.5758   17.1246 H         1 <0>         0.1300
     30 H7         19.3545    1.3005   17.8955 H         1 <0>         0.1400
     31 H8         18.4451   -0.1554   18.3650 H         1 <0>         0.1400
     32 H9         17.0302    1.8746   18.5382 H         1 <0>         0.1200
     33 H10        16.4102    0.7688   17.2882 H         1 <0>         0.0900
     34 H11        18.1471    3.2358   16.8164 H         1 <0>         0.1200
     35 H12        13.9972    3.2537   16.5236 H         1 <0>         0.0700
     36 H13        14.7256    1.7303   15.9605 H         1 <0>         0.0700
     37 H14        14.8255    2.1827   17.6791 H         1 <0>         0.1000
     38 H15        14.7086    4.3496   18.3722 H         1 <0>         0.1500
     39 H16        12.9261    5.8196   19.1887 H         1 <0>         0.1400
     40 H17        11.4583    8.0936   18.5268 H         1 <0>         0.4200
     41 H18        13.6726    9.4025   15.5681 H         1 <0>         0.1300
     42 H19        12.4530    8.3825   14.7415 H         1 <0>         0.1300
     43 H20        15.0632    6.7517   14.8346 H         1 <0>         0.1400
     44 H21        16.9115    1.2618   14.8402 H         1 <0>         0.0900
     45 H22        17.8712    2.7035   14.4264 H         1 <0>         0.1200
     46 H23        19.2662    0.6540   14.3517 H         1 <0>         0.1400
     47 H24        20.2908    2.8085   15.0281 H         1 <0>         0.0800
     48 H25        19.8852    2.4675   16.7274 H         1 <0>         0.1100
     49 H26        21.0605    1.4420   15.8699 H         1 <0>         0.0800
@<TRIPOS>BOND
     1    1    2 1
     2    1   25 1
     3    1   26 1
     4    1   27 1
     5    2    3 1
     6    2   28 1
     7    2   29 1
     8    3    4 1
     9    3   23 1
    10    3    5 1
    11    5    6 1
    12    5   30 1
    13    5   31 1
    14    6    7 1
    15    6   32 1
    16    6   33 1
    17    7    8 1
    18    7   22 1
    19    7   34 1
    20    8    9 1
    21    8   10 am
    22    9   35 1
    23    9   36 1
    24    9   37 1
    25   10   11 2
    26   10   12 1
    27   12   21 ar
    28   12   13 ar
    29   13   14 ar
    30   13   38 1
    31   14   15 ar
    32   14   39 1
    33   15   20 ar
    34   15   16 1
    35   16   17 am
    36   16   40 1
    37   17   18 2
    38   17   19 1
    39   19   20 1
    40   19   41 1
    41   19   42 1
    42   20   21 ar
    43   21   43 1
    44   22   23 1
    45   22   44 1
    46   22   45 1
    47   23   24 1
    48   23   46 1
    49   24   47 1
    50   24   48 1
    51   24   49 1
##########                 Name:            smyd3_179
##########          Protonation:                 none
##########               SMILES:   CC(=O)N1CCC(N(C)C(=O)C2=CC=C3NC(=O)CC3=C2)CC1
##########            Long Name:   NO_LONG_NAME
##########          FlexRecCode: 1
##########               Number:                  474
##########   Ligand Source File: /proj/zinc22/users/x_andlu/OGG1/revisions/docking/targets/smyd3/db2gen/split_par
##########                 Rank:                    1
##########               Setnum:                   32
##########             Matchnum:                    2
##########                Cloud:                    1
##########        Electrostatic:           -14.990999
##########                 Gist:             0.000000
##########        Van der Waals:           -33.700989
##########  Ligand Polar Desolv:             7.907286
########## Ligand Apolar Desolv:            -2.089898
##########      Internal Energy:             0.000000
##########      Receptor Energy:             0.000000
########## Receptor Desolvation:             0.000000
########## Receptor Hydrophobic:             0.000000
##########         Total Energy:           -42.874596
##########        Ligand Charge:             0.000000
##########            Arbitrary:    +999.9990
##########        Ligand Energy:             0.000000

@<TRIPOS>MOLECULE
smyd3_179      none
   44    46     0     0     0
SMALL
USER_CHARGES

@<TRIPOS>ATOM
      1 C1         16.9450   -2.5830   16.5511 C.3       1 <0>        -0.1800
      2 C2         17.7243   -1.5678   17.3470 C.2       1 <0>         0.5100
      3 O1         18.3083   -1.9059   18.3546 O.2       1 <0>        -0.5400
      4 N1         17.7720   -0.2842   16.9388 N.am      1 <0>        -0.6200
      5 C3         17.9133    0.8063   17.9133 C.3       1 <0>         0.1100
      6 C4         16.7849    1.8177   17.6885 C.3       1 <0>        -0.1400
      7 C5         16.7980    2.2742   16.2278 C.3       1 <0>         0.1400
      8 N2         15.7410    3.2664   16.0170 N.am      1 <0>        -0.6100
      9 C6         14.4004    2.8342   15.6142 C.3       1 <0>         0.0700
     10 C7         16.0018    4.5768   16.1938 C.2       1 <0>         0.5700
     11 O2         17.1201    5.0074   15.9879 O.2       1 <0>        -0.5300
     12 C8         14.9299    5.4894   16.6373 C.ar      1 <0>        -0.1500
     13 C9         14.2858    5.2774   17.8591 C.ar      1 <0>        -0.0300
     14 C10        13.2878    6.1282   18.2725 C.ar      1 <0>        -0.1400
     15 C11        12.9093    7.2106   17.4757 C.ar      1 <0>         0.1700
     16 N3         11.9438    8.1910   17.6791 N.am      1 <0>        -0.6600
     17 C12        11.8849    9.0692   16.6642 C.2       1 <0>         0.5300
     18 O3         11.1387   10.0214   16.5780 O.2       1 <0>        -0.4900
     19 C13        12.9252    8.6474   15.6483 C.3       1 <0>        -0.1100
     20 C14        13.5577    7.4169   16.2574 C.ar      1 <0>        -0.1500
     21 C15        14.5515    6.5731   15.8377 C.ar      1 <0>        -0.0400
     22 C16        16.5576    1.0710   15.3132 C.3       1 <0>        -0.1400
     23 C17        17.6834    0.0511   15.5112 C.3       1 <0>         0.1100
     24 H1         16.4926   -2.0973   15.6866 H         1 <0>         0.0900
     25 H2         17.6160   -3.3731   16.2140 H         1 <0>         0.0900
     26 H3         16.1630   -3.0128   17.1771 H         1 <0>         0.0900
     27 H4         18.8769    1.2971   17.7753 H         1 <0>         0.0700
     28 H5         17.8474    0.4040   18.9241 H         1 <0>         0.1000
     29 H6         16.9329    2.6788   18.3401 H         1 <0>         0.0800
     30 H7         15.8265    1.3505   17.9150 H         1 <0>         0.0700
     31 H8         17.7655    2.7194   15.9952 H         1 <0>         0.1100
     32 H9         13.7547    3.7057   15.5068 H         1 <0>         0.0600
     33 H10        14.4595    2.3063   14.6625 H         1 <0>         0.0800
     34 H11        13.9896    2.1691   16.3738 H         1 <0>         0.0800
     35 H12        14.5732    4.4424   18.4811 H         1 <0>         0.1400
     36 H13        12.7945    5.9586   19.2181 H         1 <0>         0.1400
     37 H14        11.3769    8.2355   18.4649 H         1 <0>         0.4200
     38 H15        12.4531    8.4032   14.6967 H         1 <0>         0.1300
     39 H16        13.6689    9.4330   15.5143 H         1 <0>         0.1300
     40 H17        15.0429    6.7458   14.8916 H         1 <0>         0.1400
     41 H18        15.6014    0.6103   15.5619 H         1 <0>         0.0700
     42 H19        16.5437    1.4006   14.2744 H         1 <0>         0.0800
     43 H20        18.6281    0.4804   15.1773 H         1 <0>         0.0800
     44 H21        17.4682   -0.8499   14.9367 H         1 <0>         0.0900
@<TRIPOS>BOND
     1    1    2 1
     2    1   24 1
     3    1   25 1
     4    1   26 1
     5    2    3 2
     6    2    4 am
     7    4   23 1
     8    4    5 1
     9    5    6 1
    10    5   27 1
    11    5   28 1
    12    6    7 1
    13    6   29 1
    14    6   30 1
    15    7    8 1
    16    7   22 1
    17    7   31 1
    18    8    9 1
    19    8   10 am
    20    9   32 1
    21    9   33 1
    22    9   34 1
    23   10   11 2
    24   10   12 1
    25   12   21 ar
    26   12   13 ar
    27   13   14 ar
    28   13   35 1
    29   14   15 ar
    30   14   36 1
    31   15   20 ar
    32   15   16 1
    33   16   17 am
    34   16   37 1
    35   17   18 2
    36   17   19 1
    37   19   20 1
    38   19   38 1
    39   19   39 1
    40   20   21 ar
    41   21   40 1
    42   22   23 1
    43   22   41 1
    44   22   42 1
    45   23   43 1
    46   23   44 1
##########                 Name:            smyd3_181
##########          Protonation:                 none
##########               SMILES:   CC(C)[NH+]1CCC(N(C)C(=O)C2=CC=C3NC(=O)CC3=C2)CC1
##########            Long Name:   NO_LONG_NAME
##########          FlexRecCode: 1
##########               Number:                  478
##########   Ligand Source File: /proj/zinc22/users/x_andlu/OGG1/revisions/docking/targets/smyd3/db2gen/split_par
##########                 Rank:                    1
##########               Setnum:                   82
##########             Matchnum:                    1
##########                Cloud:                    1
##########        Electrostatic:           -19.989117
##########                 Gist:             0.000000
##########        Van der Waals:           -32.914593
##########  Ligand Polar Desolv:             8.963636
########## Ligand Apolar Desolv:            -2.487541
##########      Internal Energy:             0.000000
##########      Receptor Energy:             0.000000
########## Receptor Desolvation:             0.000000
########## Receptor Hydrophobic:             0.000000
##########         Total Energy:           -46.427612
##########        Ligand Charge:             1.000000
##########            Arbitrary:    +999.9990
##########        Ligand Energy:             0.000000

@<TRIPOS>MOLECULE
smyd3_181      none
   49    51     0     0     0
SMALL
USER_CHARGES

@<TRIPOS>ATOM
      1 C1         19.8885   -2.1693   15.3562 C.3       1 <0>        -0.1800
      2 C2         19.9918   -1.0621   16.4072 C.3       1 <0>         0.0200
      3 C3         21.2252   -0.2026   16.1230 C.3       1 <0>        -0.1900
      4 N1         18.7873   -0.2229   16.3544 N.4       1 <0>        -0.3800
      5 H1         17.9745   -0.7907   16.5420 H         1 <0>         0.4200
      6 C4         18.8862    0.8365   17.3655 C.3       1 <0>        -0.0100
      7 C5         17.5992    1.6644   17.3700 C.3       1 <0>        -0.1600
      8 C6         17.3983    2.2928   15.9879 C.3       1 <0>         0.1300
      9 N2         16.1293    3.0244   15.9623 N.am      1 <0>        -0.6100
     10 C7         14.8711    2.3178   16.2151 C.3       1 <0>         0.0600
     11 C8         16.1194    4.3475   15.7063 C.2       1 <0>         0.5800
     12 O1         16.9758    4.8354   14.9944 O.2       1 <0>        -0.5200
     13 C9         15.0689    5.2044   16.2900 C.ar      1 <0>        -0.1700
     14 C10        14.4942    4.8741   17.5202 C.ar      1 <0>        -0.0200
     15 C11        13.5148    5.6722   18.0633 C.ar      1 <0>        -0.1400
     16 C12        13.0867    6.8189   17.3915 C.ar      1 <0>         0.1800
     17 N3         12.1276    7.7656   17.7359 N.am      1 <0>        -0.6600
     18 C13        12.0080    8.7325   16.8111 C.2       1 <0>         0.5300
     19 O2         11.2518    9.6797   16.8530 O.2       1 <0>        -0.4900
     20 C14        12.9942    8.4177   15.7063 C.3       1 <0>        -0.1100
     21 C15        13.6668    7.1437   16.1645 C.ar      1 <0>        -0.1500
     22 C16        14.6408    6.3528   15.6154 C.ar      1 <0>        -0.0400
     23 C17        17.3717    1.1845   14.9313 C.3       1 <0>        -0.1600
     24 C18        18.6664    0.3733   15.0185 C.3       1 <0>        -0.0100
     25 H2         19.0097   -2.7815   15.5587 H         1 <0>         0.0800
     26 H3         19.7997   -1.7228   14.3657 H         1 <0>         0.1100
     27 H4         20.7821   -2.7920   15.3954 H         1 <0>         0.0800
     28 H5         20.0803   -1.5086   17.3977 H         1 <0>         0.1400
     29 H6         21.2988    0.5861   16.8719 H         1 <0>         0.0800
     30 H7         22.1189   -0.8253   16.1624 H         1 <0>         0.0800
     31 H8         21.1367    0.2439   15.1327 H         1 <0>         0.1100
     32 H9         19.7325    1.4827   17.1325 H         1 <0>         0.1300
     33 H10        19.0321    0.3875   18.3479 H         1 <0>         0.1300
     34 H11        17.6753    2.4514   18.1201 H         1 <0>         0.1200
     35 H12        16.7519    1.0197   17.6035 H         1 <0>         0.0900
     36 H13        18.2187    2.9785   15.7765 H         1 <0>         0.1200
     37 H14        14.0407    3.0214   16.1547 H         1 <0>         0.0700
     38 H15        14.7383    1.5343   15.4693 H         1 <0>         0.0700
     39 H16        14.8981    1.8721   17.2095 H         1 <0>         0.0900
     40 H17        14.8202    3.9890   18.0461 H         1 <0>         0.1400
     41 H18        13.0748    5.4108   19.0143 H         1 <0>         0.1400
     42 H19        11.6044    7.7315   18.5519 H         1 <0>         0.4200
     43 H20        12.4726    8.2566   14.7629 H         1 <0>         0.1300
     44 H21        13.7246    9.2206   15.6058 H         1 <0>         0.1300
     45 H22        15.0783    6.6166   14.6639 H         1 <0>         0.1400
     46 H23        16.5199    0.5292   15.1125 H         1 <0>         0.0900
     47 H24        17.2854    1.6291   13.9397 H         1 <0>         0.1200
     48 H25        19.5174    1.0293   14.8355 H         1 <0>         0.1300
     49 H26        18.6497   -0.4173   14.2684 H         1 <0>         0.1400
@<TRIPOS>BOND
     1    1    2 1
     2    1   25 1
     3    1   26 1
     4    1   27 1
     5    2    3 1
     6    2    4 1
     7    2   28 1
     8    3   29 1
     9    3   30 1
    10    3   31 1
    11    4    5 1
    12    4   24 1
    13    4    6 1
    14    6    7 1
    15    6   32 1
    16    6   33 1
    17    7    8 1
    18    7   34 1
    19    7   35 1
    20    8    9 1
    21    8   23 1
    22    8   36 1
    23    9   10 1
    24    9   11 am
    25   10   37 1
    26   10   38 1
    27   10   39 1
    28   11   12 2
    29   11   13 1
    30   13   22 ar
    31   13   14 ar
    32   14   15 ar
    33   14   40 1
    34   15   16 ar
    35   15   41 1
    36   16   21 ar
    37   16   17 1
    38   17   18 am
    39   17   42 1
    40   18   19 2
    41   18   20 1
    42   20   21 1
    43   20   43 1
    44   20   44 1
    45   21   22 ar
    46   22   45 1
    47   23   24 1
    48   23   46 1
    49   23   47 1
    50   24   48 1
    51   24   49 1
##########                 Name:            smyd3_182
##########          Protonation:                 none
##########               SMILES:   CN(C(=O)C1=CC=C2NC(=O)CC2=C1)C1CC[NH+](C2CC2)CC1
##########            Long Name:   NO_LONG_NAME
##########          FlexRecCode: 1
##########               Number:                  479
##########   Ligand Source File: /proj/zinc22/users/x_andlu/OGG1/revisions/docking/targets/smyd3/db2gen/split_par
##########                 Rank:                    1
##########               Setnum:                    9
##########             Matchnum:                   10
##########                Cloud:                    1
##########        Electrostatic:           -19.173763
##########                 Gist:             0.000000
##########        Van der Waals:           -32.554619
##########  Ligand Polar Desolv:             8.637213
########## Ligand Apolar Desolv:            -2.620953
##########      Internal Energy:             0.000000
##########      Receptor Energy:             0.000000
########## Receptor Desolvation:             0.000000
########## Receptor Hydrophobic:             0.000000
##########         Total Energy:           -45.712124
##########        Ligand Charge:             1.000000
##########            Arbitrary:    +999.9990
##########        Ligand Energy:             0.000000

@<TRIPOS>MOLECULE
smyd3_182      none
   47    50     0     0     0
SMALL
USER_CHARGES

@<TRIPOS>ATOM
      1 C1         15.2275    3.0568   15.5689 C.3       1 <0>         0.0500
      2 N1         16.4915    3.6370   16.0294 N.am      1 <0>        -0.6100
      3 C2         16.5839    4.9638   16.2480 C.2       1 <0>         0.5700
      4 O1         17.6469    5.5330   16.0924 O.2       1 <0>        -0.5200
      5 C3         15.3960    5.7247   16.6820 C.ar      1 <0>        -0.1700
      6 C4         14.7465    5.3957   17.8746 C.ar      1 <0>        -0.0600
      7 C5         13.6435    6.1088   18.2819 C.ar      1 <0>        -0.1500
      8 C6         13.1556    7.1592   17.5019 C.ar      1 <0>         0.1800
      9 N2         12.0709    8.0069   17.7002 N.am      1 <0>        -0.6600
     10 C7         11.9318    8.9006   16.7069 C.2       1 <0>         0.5300
     11 O2         11.0760    9.7558   16.6221 O.2       1 <0>        -0.4800
     12 C8         13.0441    8.6403   15.7135 C.3       1 <0>        -0.1200
     13 C9         13.8040    7.4784   16.3117 C.ar      1 <0>        -0.1500
     14 C10        14.9088    6.7771   15.8995 C.ar      1 <0>         0.0000
     15 C11        17.6550    2.7752   16.2521 C.3       1 <0>         0.1300
     16 C12        18.0226    2.0637   14.9469 C.3       1 <0>        -0.1600
     17 C13        19.1864    1.1042   15.2057 C.3       1 <0>        -0.0100
     18 N3         18.7945    0.1121   16.2139 N.4       1 <0>        -0.3500
     19 H1         17.9688   -0.3760   15.9007 H         1 <0>         0.4200
     20 C14        19.8875   -0.8513   16.4015 C.3       1 <0>        -0.0800
     21 C15        19.8720   -2.1142   15.5381 C.3       1 <0>        -0.1600
     22 C16        19.5387   -2.2021   17.0295 C.3       1 <0>        -0.1500
     23 C17        18.5108    0.7825   17.4886 C.3       1 <0>         0.0000
     24 C18        17.3197    1.7279   17.3181 C.3       1 <0>        -0.1600
     25 H2         15.3446    1.9798   15.4487 H         1 <0>         0.0700
     26 H3         14.4469    3.2579   16.3025 H         1 <0>         0.0700
     27 H4         14.9508    3.5011   14.6128 H         1 <0>         0.1000
     28 H5         15.1147    4.5812   18.4808 H         1 <0>         0.1500
     29 H6         13.1488    5.8516   19.2069 H         1 <0>         0.1400
     30 H7         11.4811    7.9580   18.4688 H         1 <0>         0.4200
     31 H8         13.6897    9.5140   15.6249 H         1 <0>         0.1300
     32 H9         12.6325    8.3679   14.7416 H         1 <0>         0.1300
     33 H10        15.4007    7.0364   14.9737 H         1 <0>         0.1400
     34 H11        18.4976    3.3799   16.5875 H         1 <0>         0.1200
     35 H12        17.1623    1.5010   14.5843 H         1 <0>         0.0900
     36 H13        18.3168    2.8015   14.2004 H         1 <0>         0.1200
     37 H14        20.0466    1.6681   15.5668 H         1 <0>         0.1400
     38 H15        19.4494    0.5951   14.2786 H         1 <0>         0.1300
     39 H16        20.8584   -0.4192   16.6441 H         1 <0>         0.1800
     40 H17        19.0508   -2.2302   14.8309 H         1 <0>         0.1200
     41 H18        20.8327   -2.5134   15.2129 H         1 <0>         0.1300
     42 H19        20.2802   -2.6590   17.6848 H         1 <0>         0.1300
     43 H20        18.4981   -2.3759   17.3037 H         1 <0>         0.1200
     44 H21        19.3853    1.3532   17.8009 H         1 <0>         0.1300
     45 H22        18.2755    0.0354   18.2464 H         1 <0>         0.1400
     46 H23        17.1119    2.2260   18.2650 H         1 <0>         0.1200
     47 H24        16.4445    1.1582   17.0059 H         1 <0>         0.0900
@<TRIPOS>BOND
     1    1    2 1
     2    1   25 1
     3    1   26 1
     4    1   27 1
     5    2    3 am
     6    2   15 1
     7    3    4 2
     8    3    5 1
     9    5   14 ar
    10    5    6 ar
    11    6    7 ar
    12    6   28 1
    13    7    8 ar
    14    7   29 1
    15    8   13 ar
    16    8    9 1
    17    9   10 am
    18    9   30 1
    19   10   11 2
    20   10   12 1
    21   12   13 1
    22   12   31 1
    23   12   32 1
    24   13   14 ar
    25   14   33 1
    26   15   24 1
    27   15   16 1
    28   15   34 1
    29   16   17 1
    30   16   35 1
    31   16   36 1
    32   17   18 1
    33   17   37 1
    34   17   38 1
    35   18   19 1
    36   18   20 1
    37   18   23 1
    38   20   22 1
    39   20   21 1
    40   20   39 1
    41   21   22 1
    42   21   40 1
    43   21   41 1
    44   22   42 1
    45   22   43 1
    46   23   24 1
    47   23   44 1
    48   23   45 1
    49   24   46 1
    50   24   47 1
##########                 Name:            smyd3_186
##########          Protonation:                 none
##########               SMILES:   C#CCN(C(=O)C1=CC=C2NC(=O)CC2=C1)C1CC[NH+](C)CC1
##########            Long Name:   NO_LONG_NAME
##########          FlexRecCode: 1
##########               Number:                  490
##########   Ligand Source File: /proj/zinc22/users/x_andlu/OGG1/revisions/docking/targets/smyd3/db2gen/split_par
##########                 Rank:                    1
##########               Setnum:                   45
##########             Matchnum:                    2
##########                Cloud:                    1
##########        Electrostatic:           -18.088188
##########                 Gist:             0.000000
##########        Van der Waals:           -32.525692
##########  Ligand Polar Desolv:             8.958236
########## Ligand Apolar Desolv:            -2.747339
##########      Internal Energy:             0.000000
##########      Receptor Energy:             0.000000
########## Receptor Desolvation:             0.000000
########## Receptor Hydrophobic:             0.000000
##########         Total Energy:           -44.402981
##########        Ligand Charge:             1.000000
##########            Arbitrary:    +999.9990
##########        Ligand Energy:             0.000000

@<TRIPOS>MOLECULE
smyd3_186      none
   45    47     0     0     0
SMALL
USER_CHARGES

@<TRIPOS>ATOM
      1 C1         14.2188    0.9971   17.0287 C.1       1 <0>        -0.1500
      2 C2         14.5793    1.8088   16.2610 C.1       1 <0>        -0.2400
      3 C3         15.0315    2.8266   15.2985 C.3       1 <0>         0.2100
      4 N1         16.3316    3.3541   15.7203 N.am      1 <0>        -0.6100
      5 C4         16.4709    4.6673   15.9894 C.2       1 <0>         0.5800
      6 O1         17.5407    5.2154   15.8056 O.2       1 <0>        -0.5100
      7 C5         15.3251    5.4402   16.5071 C.ar      1 <0>        -0.1700
      8 C6         14.7222    5.0809   17.7154 C.ar      1 <0>        -0.0200
      9 C7         13.6540    5.8005   18.1970 C.ar      1 <0>        -0.1400
     10 C8         13.1633    6.8964   17.4842 C.ar      1 <0>         0.1800
     11 N2         12.1123    7.7629   17.7655 N.am      1 <0>        -0.6600
     12 C9         11.9559    8.7020   16.8178 C.2       1 <0>         0.5300
     13 O2         11.1212    9.5818   16.8064 O.2       1 <0>        -0.4900
     14 C10        13.0169    8.4558   15.7662 C.3       1 <0>        -0.1200
     15 C11        13.7719    7.2507   16.2793 C.ar      1 <0>        -0.1500
     16 C12        14.8344    6.5375   15.7914 C.ar      1 <0>        -0.0400
     17 C13        17.4804    2.4540   15.8495 C.3       1 <0>         0.1300
     18 C14        17.3358    1.2940   14.8602 C.3       1 <0>        -0.1600
     19 C15        18.4969    0.3167   15.0554 C.3       1 <0>        -0.0000
     20 N3         18.4781   -0.2034   16.4277 N.4       1 <0>        -0.3900
     21 H1         17.5854   -0.6376   16.6084 H         1 <0>         0.4200
     22 C16        19.5464   -1.1990   16.5874 C.3       1 <0>        -0.0500
     23 C17        18.6881    0.8943   17.3794 C.3       1 <0>        -0.0000
     24 C18        17.5343    1.8936   17.2736 C.3       1 <0>        -0.1600
     25 H2         13.8962    0.2710   17.7152 H         1 <0>         0.2200
     26 H3         14.3053    3.6385   15.2601 H         1 <0>         0.1000
     27 H4         15.1255    2.3761   14.3105 H         1 <0>         0.1200
     28 H5         15.0962    4.2348   18.2726 H         1 <0>         0.1400
     29 H6         13.1926    5.5170   19.1314 H         1 <0>         0.1400
     30 H7         11.5553    7.6967   18.5569 H         1 <0>         0.4200
     31 H8         12.5566    8.2365   14.8028 H         1 <0>         0.1300
     32 H9         13.6809    9.3163   15.6844 H         1 <0>         0.1300
     33 H10        15.2932    6.8233   14.8564 H         1 <0>         0.1400
     34 H11        18.3986    3.0023   15.6385 H         1 <0>         0.1200
     35 H12        16.3922    0.7784   15.0391 H         1 <0>         0.0900
     36 H13        17.3527    1.6805   13.8411 H         1 <0>         0.1200
     37 H14        19.4399    0.8331   14.8759 H         1 <0>         0.1300
     38 H15        18.3967   -0.5104   14.3525 H         1 <0>         0.1400
     39 H16        19.5333   -1.5859   17.6063 H         1 <0>         0.1200
     40 H17        19.3878   -2.0179   15.8856 H         1 <0>         0.1200
     41 H18        20.5110   -0.7319   16.3885 H         1 <0>         0.1200
     42 H19        19.6270    1.3983   17.1505 H         1 <0>         0.1300
     43 H20        18.7290    0.4931   18.3921 H         1 <0>         0.1400
     44 H21        17.6929    2.7088   17.9796 H         1 <0>         0.1200
     45 H22        16.5944    1.3914   17.5030 H         1 <0>         0.0900
@<TRIPOS>BOND
     1    1    2 3
     2    1   25 1
     3    2    3 1
     4    3    4 1
     5    3   26 1
     6    3   27 1
     7    4    5 am
     8    4   17 1
     9    5    6 2
    10    5    7 1
    11    7   16 ar
    12    7    8 ar
    13    8    9 ar
    14    8   28 1
    15    9   10 ar
    16    9   29 1
    17   10   15 ar
    18   10   11 1
    19   11   12 am
    20   11   30 1
    21   12   13 2
    22   12   14 1
    23   14   15 1
    24   14   31 1
    25   14   32 1
    26   15   16 ar
    27   16   33 1
    28   17   24 1
    29   17   18 1
    30   17   34 1
    31   18   19 1
    32   18   35 1
    33   18   36 1
    34   19   20 1
    35   19   37 1
    36   19   38 1
    37   20   21 1
    38   20   22 1
    39   20   23 1
    40   22   39 1
    41   22   40 1
    42   22   41 1
    43   23   24 1
    44   23   42 1
    45   23   43 1
    46   24   44 1
    47   24   45 1
##########                 Name:            smyd3_189
##########          Protonation:                 none
##########               SMILES:   C[NH+]1CCC(N(CCO)C(=O)C2=CC=C3NC(=O)CC3=C2)CC1
##########            Long Name:   NO_LONG_NAME
##########          FlexRecCode: 1
##########               Number:                  503
##########   Ligand Source File: /proj/zinc22/users/x_andlu/OGG1/revisions/docking/targets/smyd3/db2gen/split_par
##########                 Rank:                    1
##########               Setnum:                   85
##########             Matchnum:                    6
##########                Cloud:                    1
##########        Electrostatic:           -17.430838
##########                 Gist:             0.000000
##########        Van der Waals:           -33.425926
##########  Ligand Polar Desolv:             8.283524
########## Ligand Apolar Desolv:            -1.140176
##########      Internal Energy:             0.000000
##########      Receptor Energy:             0.000000
########## Receptor Desolvation:             0.000000
########## Receptor Hydrophobic:             0.000000
##########         Total Energy:           -43.713417
##########        Ligand Charge:             1.000000
##########            Arbitrary:    +999.9990
##########        Ligand Energy:             0.000000

@<TRIPOS>MOLECULE
smyd3_189      none
   47    49     0     0     0
SMALL
USER_CHARGES

@<TRIPOS>ATOM
      1 C1         19.5898   -0.9837   15.5925 C.3       1 <0>        -0.0500
      2 N1         18.7718    0.2364   15.6015 N.4       1 <0>        -0.3900
      3 H1         17.8027   -0.0087   15.4644 H         1 <0>         0.4300
      4 C2         18.9250    0.9169   16.8931 C.3       1 <0>         0.0000
      5 C3         18.0129    2.1446   16.9383 C.3       1 <0>        -0.1700
      6 C4         18.3979    3.1017   15.8065 C.3       1 <0>         0.1500
      7 N2         17.4798    4.2434   15.7969 N.am      1 <0>        -0.6000
      8 C5         17.9980    5.6015   15.9812 C.3       1 <0>         0.0900
      9 C6         18.3516    6.2015   14.6189 C.3       1 <0>         0.0500
     10 O1         17.1818    6.2450   13.7994 O.3       1 <0>        -0.5700
     11 C7         16.1590    4.0445   15.6186 C.2       1 <0>         0.5800
     12 O2         15.7701    3.1030   14.9548 O.2       1 <0>        -0.5300
     13 C8         15.1843    4.9697   16.2290 C.ar      1 <0>        -0.1700
     14 C9         14.6887    4.7237   17.5121 C.ar      1 <0>        -0.0200
     15 C10        13.7800    5.5854   18.0801 C.ar      1 <0>        -0.1400
     16 C11        13.3454    6.7133   17.3810 C.ar      1 <0>         0.1800
     17 N3         12.4478    7.7126   17.7419 N.am      1 <0>        -0.6600
     18 C12        12.2961    8.6363   16.7783 C.2       1 <0>         0.5300
     19 O3         11.5790    9.6132   16.8237 O.2       1 <0>        -0.4800
     20 C13        13.1882    8.2286   15.6251 C.3       1 <0>        -0.1200
     21 C14        13.8465    6.9536   16.1008 C.ar      1 <0>        -0.1500
     22 C15        14.7497    6.0989   15.5269 C.ar      1 <0>        -0.0500
     23 C16        18.3060    2.3595   14.4702 C.3       1 <0>        -0.1700
     24 C17        19.2072    1.1237   14.5163 C.3       1 <0>         0.0000
     25 H2         20.6372   -0.7200   15.7404 H         1 <0>         0.1200
     26 H3         19.2648   -1.6451   16.3955 H         1 <0>         0.1200
     27 H4         19.4749   -1.4912   14.6346 H         1 <0>         0.1200
     28 H5         19.9615    1.2299   17.0175 H         1 <0>         0.1300
     29 H6         18.6533    0.2331   17.6973 H         1 <0>         0.1300
     30 H7         18.1294    2.6494   17.8973 H         1 <0>         0.1100
     31 H8         16.9758    1.8331   16.8146 H         1 <0>         0.1100
     32 H9         19.4177    3.4552   15.9592 H         1 <0>         0.1100
     33 H10        17.2391    6.2174   16.4635 H         1 <0>         0.0900
     34 H11        18.8902    5.5681   16.6063 H         1 <0>         0.1100
     35 H12        18.7370    7.2118   14.7560 H         1 <0>         0.0700
     36 H13        19.1105    5.5855   14.1365 H         1 <0>         0.0600
     37 H14        17.3321    6.6149   12.9186 H         1 <0>         0.3900
     38 H15        15.0202    3.8537   18.0594 H         1 <0>         0.1400
     39 H16        13.4008    5.3891   19.0721 H         1 <0>         0.1400
     40 H17        11.9840    7.7397   18.5933 H         1 <0>         0.4200
     41 H18        12.5945    8.0415   14.7303 H         1 <0>         0.1300
     42 H19        13.9375    8.9964   15.4316 H         1 <0>         0.1300
     43 H20        15.1263    6.2979   14.5344 H         1 <0>         0.1400
     44 H21        17.2752    2.0518   14.2948 H         1 <0>         0.1100
     45 H22        18.6321    3.0179   13.6650 H         1 <0>         0.1100
     46 H23        20.2379    1.4325   14.6916 H         1 <0>         0.1300
     47 H24        19.1439    0.5932   13.5663 H         1 <0>         0.1300
@<TRIPOS>BOND
     1    1    2 1
     2    1   25 1
     3    1   26 1
     4    1   27 1
     5    2    3 1
     6    2   24 1
     7    2    4 1
     8    4    5 1
     9    4   28 1
    10    4   29 1
    11    5    6 1
    12    5   30 1
    13    5   31 1
    14    6    7 1
    15    6   23 1
    16    6   32 1
    17    7    8 1
    18    7   11 am
    19    8    9 1
    20    8   33 1
    21    8   34 1
    22    9   10 1
    23    9   35 1
    24    9   36 1
    25   10   37 1
    26   11   12 2
    27   11   13 1
    28   13   22 ar
    29   13   14 ar
    30   14   15 ar
    31   14   38 1
    32   15   16 ar
    33   15   39 1
    34   16   21 ar
    35   16   17 1
    36   17   18 am
    37   17   40 1
    38   18   19 2
    39   18   20 1
    40   20   21 1
    41   20   41 1
    42   20   42 1
    43   21   22 ar
    44   22   43 1
    45   23   24 1
    46   23   44 1
    47   23   45 1
    48   24   46 1
    49   24   47 1
##########                 Name:            smyd3_191
##########          Protonation:                 none
##########               SMILES:   CCN(C(=O)C1=CC=C2NC(=O)CC2=C1)C1CC[NH+](CC)CC1
##########            Long Name:   NO_LONG_NAME
##########          FlexRecCode: 1
##########               Number:                  506
##########   Ligand Source File: /proj/zinc22/users/x_andlu/OGG1/revisions/docking/targets/smyd3/db2gen/split_par
##########                 Rank:                    1
##########               Setnum:                   17
##########             Matchnum:                    6
##########                Cloud:                    1
##########        Electrostatic:           -15.365930
##########                 Gist:             0.000000
##########        Van der Waals:           -32.717426
##########  Ligand Polar Desolv:             7.925046
########## Ligand Apolar Desolv:            -2.711445
##########      Internal Energy:             0.000000
##########      Receptor Energy:             0.000000
########## Receptor Desolvation:             0.000000
########## Receptor Hydrophobic:             0.000000
##########         Total Energy:           -42.869755
##########        Ligand Charge:             1.000000
##########            Arbitrary:    +999.9990
##########        Ligand Energy:             0.000000

@<TRIPOS>MOLECULE
smyd3_191      none
   49    51     0     0     0
SMALL
USER_CHARGES

@<TRIPOS>ATOM
      1 C1         18.3446    6.3196   14.6464 C.3       1 <0>        -0.1800
      2 C2         17.9871    5.7114   16.0039 C.3       1 <0>         0.0900
      3 N1         17.4594    4.3586   15.8092 N.am      1 <0>        -0.6100
      4 C3         16.1370    4.1704   15.6299 C.2       1 <0>         0.5800
      5 O1         15.7413    3.2369   14.9590 O.2       1 <0>        -0.5300
      6 C4         15.1692    5.0976   16.2480 C.ar      1 <0>        -0.1700
      7 C5         14.6725    4.8449   17.5295 C.ar      1 <0>        -0.0200
      8 C6         13.7702    5.7084   18.1049 C.ar      1 <0>        -0.1400
      9 C7         13.3430    6.8446   17.4148 C.ar      1 <0>         0.1800
     10 N2         12.4523    7.8471   17.7840 N.am      1 <0>        -0.6600
     11 C8         12.3063    8.7793   16.8278 C.2       1 <0>         0.5300
     12 O2         11.5955    9.7605   16.8811 O.2       1 <0>        -0.4800
     13 C9         13.1952    8.3748   15.6709 C.3       1 <0>        -0.1200
     14 C10        13.8451    7.0916   16.1363 C.ar      1 <0>        -0.1500
     15 C11        14.7422    6.2355   15.5553 C.ar      1 <0>        -0.0500
     16 C12        18.3694    3.2103   15.8095 C.3       1 <0>         0.1500
     17 C13        18.2718    2.4794   14.4674 C.3       1 <0>        -0.1700
     18 C14        19.1642    1.2368   14.5035 C.3       1 <0>        -0.0000
     19 N3         18.7228    0.3443   15.5819 N.4       1 <0>        -0.3900
     20 H1         17.7522    0.1060   15.4438 H         1 <0>         0.4300
     21 C15        19.5336   -0.8807   15.5622 C.3       1 <0>        -0.0100
     22 C16        19.0760   -1.8134   16.6853 C.3       1 <0>        -0.1900
     23 C17        18.8814    1.0133   16.8787 C.3       1 <0>         0.0000
     24 C18        17.9780    2.2471   16.9340 C.3       1 <0>        -0.1700
     25 H2         18.7372    7.3262   14.7912 H         1 <0>         0.0600
     26 H3         19.0990    5.7021   14.1588 H         1 <0>         0.0800
     27 H4         17.4523    6.3640   14.0218 H         1 <0>         0.0700
     28 H5         17.2328    6.3289   16.4915 H         1 <0>         0.0800
     29 H6         18.8794    5.6670   16.6285 H         1 <0>         0.1000
     30 H7         14.9981    3.9682   18.0697 H         1 <0>         0.1400
     31 H8         13.3899    5.5066   19.0953 H         1 <0>         0.1400
     32 H9         11.9887    7.8704   18.6357 H         1 <0>         0.4200
     33 H10        12.5998    8.1986   14.7750 H         1 <0>         0.1300
     34 H11        13.9494    9.1390   15.4830 H         1 <0>         0.1300
     35 H12        15.1199    6.4397   14.5643 H         1 <0>         0.1500
     36 H13        19.3915    3.5555   15.9645 H         1 <0>         0.1000
     37 H14        17.2387    2.1805   14.2901 H         1 <0>         0.1100
     38 H15        18.6022    3.1416   13.6673 H         1 <0>         0.1100
     39 H16        20.1970    1.5370   14.6807 H         1 <0>         0.1300
     40 H17        19.0968    0.7144   13.5493 H         1 <0>         0.1300
     41 H18        19.4120   -1.3815   14.6017 H         1 <0>         0.1300
     42 H19        20.5829   -0.6242   15.7078 H         1 <0>         0.1300
     43 H20        19.6776   -2.7221   16.6707 H         1 <0>         0.1100
     44 H21        19.1977   -1.3126   17.6458 H         1 <0>         0.0800
     45 H22        18.0267   -2.0699   16.5397 H         1 <0>         0.0800
     46 H23        19.9202    1.3182   17.0051 H         1 <0>         0.1300
     47 H24        18.6052    0.3253   17.6777 H         1 <0>         0.1300
     48 H25        18.0984    2.7436   17.8969 H         1 <0>         0.1100
     49 H26        16.9386    1.9441   16.8082 H         1 <0>         0.1100
@<TRIPOS>BOND
     1    1    2 1
     2    1   25 1
     3    1   26 1
     4    1   27 1
     5    2    3 1
     6    2   28 1
     7    2   29 1
     8    3    4 am
     9    3   16 1
    10    4    5 2
    11    4    6 1
    12    6   15 ar
    13    6    7 ar
    14    7    8 ar
    15    7   30 1
    16    8    9 ar
    17    8   31 1
    18    9   14 ar
    19    9   10 1
    20   10   11 am
    21   10   32 1
    22   11   12 2
    23   11   13 1
    24   13   14 1
    25   13   33 1
    26   13   34 1
    27   14   15 ar
    28   15   35 1
    29   16   24 1
    30   16   17 1
    31   16   36 1
    32   17   18 1
    33   17   37 1
    34   17   38 1
    35   18   19 1
    36   18   39 1
    37   18   40 1
    38   19   20 1
    39   19   21 1
    40   19   23 1
    41   21   22 1
    42   21   41 1
    43   21   42 1
    44   22   43 1
    45   22   44 1
    46   22   45 1
    47   23   24 1
    48   23   46 1
    49   23   47 1
    50   24   48 1
    51   24   49 1
##########                 Name:            smyd3_192
##########          Protonation:                 none
##########               SMILES:   CCC[NH+]1CCC(N(C)C(=O)C2=CC=C3NC(=O)CC3=C2)CC1
##########            Long Name:   NO_LONG_NAME
##########          FlexRecCode: 1
##########               Number:                  509
##########   Ligand Source File: /proj/zinc22/users/x_andlu/OGG1/revisions/docking/targets/smyd3/db2gen/split_par
##########                 Rank:                    1
##########               Setnum:                   46
##########             Matchnum:                   20
##########                Cloud:                    1
##########        Electrostatic:           -19.100163
##########                 Gist:             0.000000
##########        Van der Waals:           -33.307308
##########  Ligand Polar Desolv:             9.160604
########## Ligand Apolar Desolv:            -2.602158
##########      Internal Energy:             0.000000
##########      Receptor Energy:             0.000000
########## Receptor Desolvation:             0.000000
########## Receptor Hydrophobic:             0.000000
##########         Total Energy:           -45.849022
##########        Ligand Charge:             1.000000
##########            Arbitrary:    +999.9990
##########        Ligand Energy:             0.000000

@<TRIPOS>MOLECULE
smyd3_192      none
   49    51     0     0     0
SMALL
USER_CHARGES

@<TRIPOS>ATOM
      1 C1         20.9944   -3.2588   15.8116 C.3       1 <0>        -0.1600
      2 C2         19.7384   -2.3865   15.7618 C.3       1 <0>        -0.1500
      3 C3         20.0321   -1.0321   16.4104 C.3       1 <0>        -0.0100
      4 N1         18.8262   -0.1946   16.3626 N.4       1 <0>        -0.3800
      5 H1         18.0160   -0.7634   16.5581 H         1 <0>         0.4200
      6 C4         18.9303    0.8683   17.3695 C.3       1 <0>        -0.0000
      7 C5         17.6424    1.6947   17.3796 C.3       1 <0>        -0.1600
      8 C6         17.4317    2.3181   15.9967 C.3       1 <0>         0.1300
      9 N2         16.1617    3.0482   15.9770 N.am      1 <0>        -0.6100
     10 C7         14.9060    2.3408   16.2403 C.3       1 <0>         0.0600
     11 C8         16.1484    4.3704   15.7166 C.2       1 <0>         0.5800
     12 O1         16.9997    4.8569   14.9976 O.2       1 <0>        -0.5200
     13 C9         15.1007    5.2279   16.3043 C.ar      1 <0>        -0.1700
     14 C10        14.5345    4.9011   17.5392 C.ar      1 <0>        -0.0200
     15 C11        13.5576    5.6997   18.0860 C.ar      1 <0>        -0.1400
     16 C12        13.1237    6.8437   17.4132 C.ar      1 <0>         0.1800
     17 N3         12.1657    7.7904   17.7606 N.am      1 <0>        -0.6600
     18 C13        12.0389    8.7540   16.8334 C.2       1 <0>         0.5300
     19 O2         11.2818    9.7004   16.8771 O.2       1 <0>        -0.4900
     20 C14        13.0184    8.4367   15.7233 C.3       1 <0>        -0.1100
     21 C15        13.6954    7.1651   16.1813 C.ar      1 <0>        -0.1500
     22 C16        14.6668    6.3735   15.6286 C.ar      1 <0>        -0.0400
     23 C17        17.3996    1.2063   14.9440 C.3       1 <0>        -0.1600
     24 C18        18.6958    0.3970   15.0256 C.3       1 <0>        -0.0100
     25 H2         20.7850   -4.2236   15.3495 H         1 <0>         0.0800
     26 H3         21.8017   -2.7646   15.2712 H         1 <0>         0.0700
     27 H4         21.2910   -3.4097   16.8495 H         1 <0>         0.0700
     28 H5         18.9310   -2.8807   16.3020 H         1 <0>         0.0900
     29 H6         19.4419   -2.2354   14.7238 H         1 <0>         0.0900
     30 H7         20.8394   -0.5379   15.8702 H         1 <0>         0.1300
     31 H8         20.3286   -1.1832   17.4484 H         1 <0>         0.1300
     32 H9         19.7744    1.5148   17.1288 H         1 <0>         0.1300
     33 H10        19.0832    0.4228   18.3524 H         1 <0>         0.1400
     34 H11        17.7224    2.4843   18.1266 H         1 <0>         0.1200
     35 H12        16.7974    1.0498   17.6207 H         1 <0>         0.0900
     36 H13        18.2499    3.0042   15.7777 H         1 <0>         0.1200
     37 H14        14.0744    3.0432   16.1829 H         1 <0>         0.0700
     38 H15        14.7693    1.5547   15.4979 H         1 <0>         0.0700
     39 H16        14.9401    1.8985   17.2359 H         1 <0>         0.0900
     40 H17        14.8650    4.0181   18.0660 H         1 <0>         0.1400
     41 H18        13.1241    5.4410   19.0407 H         1 <0>         0.1400
     42 H19        11.6478    7.7584   18.5801 H         1 <0>         0.4200
     43 H20        12.4908    8.2719   14.7838 H         1 <0>         0.1300
     44 H21        13.7470    9.2401   15.6154 H         1 <0>         0.1300
     45 H22        15.0978    6.6347   14.6734 H         1 <0>         0.1400
     46 H23        16.5498    0.5505   15.1330 H         1 <0>         0.0900
     47 H24        17.3064    1.6474   13.9516 H         1 <0>         0.1200
     48 H25        19.5449    1.0534   14.8349 H         1 <0>         0.1300
     49 H26        18.6753   -0.3962   14.2782 H         1 <0>         0.1400
@<TRIPOS>BOND
     1    1    2 1
     2    1   25 1
     3    1   26 1
     4    1   27 1
     5    2    3 1
     6    2   28 1
     7    2   29 1
     8    3    4 1
     9    3   30 1
    10    3   31 1
    11    4    5 1
    12    4   24 1
    13    4    6 1
    14    6    7 1
    15    6   32 1
    16    6   33 1
    17    7    8 1
    18    7   34 1
    19    7   35 1
    20    8    9 1
    21    8   23 1
    22    8   36 1
    23    9   10 1
    24    9   11 am
    25   10   37 1
    26   10   38 1
    27   10   39 1
    28   11   12 2
    29   11   13 1
    30   13   22 ar
    31   13   14 ar
    32   14   15 ar
    33   14   40 1
    34   15   16 ar
    35   15   41 1
    36   16   21 ar
    37   16   17 1
    38   17   18 am
    39   17   42 1
    40   18   19 2
    41   18   20 1
    42   20   21 1
    43   20   43 1
    44   20   44 1
    45   21   22 ar
    46   22   45 1
    47   23   24 1
    48   23   46 1
    49   23   47 1
    50   24   48 1
    51   24   49 1
##########                 Name:            smyd3_193
##########          Protonation:                 none
##########               SMILES:   CN(C(=O)C1=CC=C2NC(=O)CC2=C1)C1CC[NH+](CCO)CC1
##########            Long Name:   NO_LONG_NAME
##########          FlexRecCode: 1
##########               Number:                  512
##########   Ligand Source File: /proj/zinc22/users/x_andlu/OGG1/revisions/docking/targets/smyd3/db2gen/split_par
##########                 Rank:                    1
##########               Setnum:                   23
##########             Matchnum:                    5
##########                Cloud:                    1
##########        Electrostatic:           -22.196241
##########                 Gist:             0.000000
##########        Van der Waals:           -31.797876
##########  Ligand Polar Desolv:             8.787403
########## Ligand Apolar Desolv:            -1.413593
##########      Internal Energy:             0.000000
##########      Receptor Energy:             0.000000
########## Receptor Desolvation:             0.000000
########## Receptor Hydrophobic:             0.000000
##########         Total Energy:           -46.620308
##########        Ligand Charge:             1.000000
##########            Arbitrary:    +999.9990
##########        Ligand Energy:             0.000000

@<TRIPOS>MOLECULE
smyd3_193      none
   47    49     0     0     0
SMALL
USER_CHARGES

@<TRIPOS>ATOM
      1 C1         14.7649    2.9205   16.5512 C.3       1 <0>         0.0600
      2 N1         16.0954    3.5003   16.3523 N.am      1 <0>        -0.6100
      3 C2         16.2793    4.8283   16.4902 C.2       1 <0>         0.5800
      4 O1         17.3836    5.3095   16.3251 O.2       1 <0>        -0.5200
      5 C3         15.1400    5.6986   16.8415 C.ar      1 <0>        -0.1700
      6 C4         14.4427    5.4972   18.0355 C.ar      1 <0>        -0.0200
      7 C5         13.3807    6.3075   18.3621 C.ar      1 <0>        -0.1400
      8 C6         12.9907    7.3383   17.5047 C.ar      1 <0>         0.1800
      9 N2         11.9659    8.2719   17.6183 N.am      1 <0>        -0.6600
     10 C7         11.9171    9.1080   16.5680 C.2       1 <0>         0.5300
     11 O2         11.1278   10.0143   16.4050 O.2       1 <0>        -0.4900
     12 C8         13.0318    8.7064   15.6257 C.3       1 <0>        -0.1100
     13 C9         13.6932    7.5348   16.3151 C.ar      1 <0>        -0.1500
     14 C10        14.7503    6.7305   15.9812 C.ar      1 <0>        -0.0400
     15 C11        17.2261    2.6366   16.0034 C.3       1 <0>         0.1300
     16 C12        16.9313    1.9141   14.6857 C.3       1 <0>        -0.1600
     17 C13        18.0795    0.9533   14.3692 C.3       1 <0>        -0.0000
     18 N3         18.2137   -0.0301   15.4506 N.4       1 <0>        -0.3800
     19 H1         17.3387   -0.5181   15.5706 H         1 <0>         0.4300
     20 C14        19.2658   -0.9952   15.1050 C.3       1 <0>        -0.0100
     21 C15        19.0847   -2.2667   15.9367 C.3       1 <0>         0.0400
     22 O3         17.8045   -2.8383   15.6602 O.3       1 <0>        -0.5800
     23 C16        18.5680    0.6507   16.7018 C.3       1 <0>        -0.0100
     24 C17        17.4379    1.5984   17.1091 C.3       1 <0>        -0.1600
     25 H2         14.8118    1.8423   16.3986 H         1 <0>         0.0700
     26 H3         14.4256    3.1294   17.5659 H         1 <0>         0.0700
     27 H4         14.0672    3.3585   15.8375 H         1 <0>         0.0900
     28 H5         14.7386    4.7022   18.7040 H         1 <0>         0.1400
     29 H6         12.8460    6.1460   19.2864 H         1 <0>         0.1400
     30 H7         11.3556    8.3146   18.3710 H         1 <0>         0.4200
     31 H8         12.6258    8.4025   14.6608 H         1 <0>         0.1300
     32 H9         13.7400    9.5255   15.5002 H         1 <0>         0.1300
     33 H10        15.2824    6.8943   15.0557 H         1 <0>         0.1400
     34 H11        18.1265    3.2413   15.8941 H         1 <0>         0.1200
     35 H12        16.0025    1.3514   14.7791 H         1 <0>         0.0900
     36 H13        16.8353    2.6455   13.8833 H         1 <0>         0.1200
     37 H14        19.0074    1.5173   14.2744 H         1 <0>         0.1300
     38 H15        17.8716    0.4364   13.4324 H         1 <0>         0.1400
     39 H16        19.1990   -1.2416   14.0454 H         1 <0>         0.1400
     40 H17        20.2424   -0.5592   15.3159 H         1 <0>         0.1400
     41 H18        19.8654   -2.9828   15.6801 H         1 <0>         0.1000
     42 H19        19.1515   -2.0204   16.9963 H         1 <0>         0.0700
     43 H20        17.0609   -2.2550   15.8650 H         1 <0>         0.4100
     44 H21        19.4855    1.2211   16.5573 H         1 <0>         0.1300
     45 H22        18.7211   -0.0901   17.4867 H         1 <0>         0.1300
     46 H23        17.7036    2.1041   18.0372 H         1 <0>         0.1200
     47 H24        16.5195    1.0295   17.2547 H         1 <0>         0.0900
@<TRIPOS>BOND
     1    1    2 1
     2    1   25 1
     3    1   26 1
     4    1   27 1
     5    2    3 am
     6    2   15 1
     7    3    4 2
     8    3    5 1
     9    5   14 ar
    10    5    6 ar
    11    6    7 ar
    12    6   28 1
    13    7    8 ar
    14    7   29 1
    15    8   13 ar
    16    8    9 1
    17    9   10 am
    18    9   30 1
    19   10   11 2
    20   10   12 1
    21   12   13 1
    22   12   31 1
    23   12   32 1
    24   13   14 ar
    25   14   33 1
    26   15   24 1
    27   15   16 1
    28   15   34 1
    29   16   17 1
    30   16   35 1
    31   16   36 1
    32   17   18 1
    33   17   37 1
    34   17   38 1
    35   18   19 1
    36   18   20 1
    37   18   23 1
    38   20   21 1
    39   20   39 1
    40   20   40 1
    41   21   22 1
    42   21   41 1
    43   21   42 1
    44   22   43 1
    45   23   24 1
    46   23   44 1
    47   23   45 1
    48   24   46 1
    49   24   47 1
##########                 Name:            smyd3_203
##########          Protonation:                 none
##########               SMILES:   CNC(=O)N1CCC(NC(=O)C2=CC=C3NC(=O)CC3=C2)CC1
##########            Long Name:   NO_LONG_NAME
##########          FlexRecCode: 1
##########               Number:                  534
##########   Ligand Source File: /proj/zinc22/users/x_andlu/OGG1/revisions/docking/targets/smyd3/db2gen/split_par
##########                 Rank:                    1
##########               Setnum:                    5
##########             Matchnum:                    3
##########                Cloud:                    1
##########        Electrostatic:           -18.798403
##########                 Gist:             0.000000
##########        Van der Waals:           -32.147495
##########  Ligand Polar Desolv:             7.758325
########## Ligand Apolar Desolv:            -1.000665
##########      Internal Energy:             0.000000
##########      Receptor Energy:             0.000000
########## Receptor Desolvation:             0.000000
########## Receptor Hydrophobic:             0.000000
##########         Total Energy:           -44.188240
##########        Ligand Charge:             0.000000
##########            Arbitrary:    +999.9990
##########        Ligand Energy:             0.000000

@<TRIPOS>MOLECULE
smyd3_203      none
   43    45     0     0     0
SMALL
USER_CHARGES

@<TRIPOS>ATOM
      1 C1         20.6989   -3.0439   15.8157 C.3       1 <0>         0.1000
      2 N1         20.1134   -1.7720   15.3847 N.am      1 <0>        -0.7500
      3 C2         20.1970   -0.6875   16.1805 C.2       1 <0>         0.7100
      4 O1         20.7583   -0.7648   17.2564 O.2       1 <0>        -0.5900
      5 N2         19.6584    0.4826   15.7839 N.am      1 <0>        -0.6300
      6 C3         20.2335    1.7598   16.2273 C.3       1 <0>         0.1300
      7 C4         19.1320    2.6087   16.8594 C.3       1 <0>        -0.1500
      8 C5         17.9707    2.7506   15.8727 C.3       1 <0>         0.1500
      9 N3         16.9263    3.5894   16.4658 N.am      1 <0>        -0.7200
     10 C6         16.1391    4.3454   15.6751 C.2       1 <0>         0.5700
     11 O2         16.2957    4.3313   14.4695 O.2       1 <0>        -0.5300
     12 C7         15.0867    5.1904   16.2728 C.ar      1 <0>        -0.1600
     13 C8         14.5114    4.8377   17.4963 C.ar      1 <0>        -0.0500
     14 C9         13.5348    5.6280   18.0555 C.ar      1 <0>        -0.1500
     15 C10        13.1021    6.7831   17.4012 C.ar      1 <0>         0.1700
     16 N4         12.1412    7.7220   17.7612 N.am      1 <0>        -0.6600
     17 C11        12.0170    8.7018   16.8505 C.2       1 <0>         0.5300
     18 O3         11.2586    9.6464   16.9077 O.2       1 <0>        -0.4900
     19 C12        13.0016    8.4054   15.7392 C.3       1 <0>        -0.1200
     20 C13        13.6754    7.1257   16.1795 C.ar      1 <0>        -0.1500
     21 C14        14.6540    6.3470   15.6156 C.ar      1 <0>        -0.0000
     22 C15        17.3959    1.3680   15.5564 C.3       1 <0>        -0.1400
     23 C16        18.4812    0.5050   14.9051 C.3       1 <0>         0.1200
     24 H1         20.5334   -3.7989   15.0474 H         1 <0>         0.0800
     25 H2         21.7697   -2.9156   15.9745 H         1 <0>         0.0600
     26 H3         20.2294   -3.3631   16.7462 H         1 <0>         0.0600
     27 H4         19.6693   -1.7093   14.5247 H         1 <0>         0.4000
     28 H5         21.0159    1.5726   16.9627 H         1 <0>         0.1000
     29 H6         20.6526    2.2885   15.3712 H         1 <0>         0.0700
     30 H7         19.5256    3.5958   17.1022 H         1 <0>         0.0800
     31 H8         18.7788    2.1240   17.7695 H         1 <0>         0.0700
     32 H9         18.3297    3.2135   14.9534 H         1 <0>         0.0900
     33 H10        16.8013    3.6007   17.4278 H         1 <0>         0.4000
     34 H11        14.8378    3.9435   18.0066 H         1 <0>         0.1300
     35 H12        13.0977    5.3518   19.0038 H         1 <0>         0.1400
     36 H13        11.6193    7.6747   18.5775 H         1 <0>         0.4200
     37 H14        13.7311    9.2104   15.6502 H         1 <0>         0.1300
     38 H15        12.4784    8.2564   14.7947 H         1 <0>         0.1300
     39 H16        15.0889    6.6259   14.6672 H         1 <0>         0.1500
     40 H17        16.5540    1.4719   14.8719 H         1 <0>         0.0900
     41 H18        17.0593    0.8943   16.4786 H         1 <0>         0.0800
     42 H19        18.7546    0.9293   13.9389 H         1 <0>         0.0800
     43 H20        18.1094   -0.5102   14.7662 H         1 <0>         0.0800
@<TRIPOS>BOND
     1    1    2 1
     2    1   24 1
     3    1   25 1
     4    1   26 1
     5    2    3 am
     6    2   27 1
     7    3    4 2
     8    3    5 am
     9    5   23 1
    10    5    6 1
    11    6    7 1
    12    6   28 1
    13    6   29 1
    14    7    8 1
    15    7   30 1
    16    7   31 1
    17    8    9 1
    18    8   22 1
    19    8   32 1
    20    9   10 am
    21    9   33 1
    22   10   11 2
    23   10   12 1
    24   12   21 ar
    25   12   13 ar
    26   13   14 ar
    27   13   34 1
    28   14   15 ar
    29   14   35 1
    30   15   20 ar
    31   15   16 1
    32   16   17 am
    33   16   36 1
    34   17   18 2
    35   17   19 1
    36   19   20 1
    37   19   37 1
    38   19   38 1
    39   20   21 ar
    40   21   39 1
    41   22   23 1
    42   22   40 1
    43   22   41 1
    44   23   42 1
    45   23   43 1
##########                 Name:            smyd3_207
##########          Protonation:                 none
##########               SMILES:   CC[NH+]1CCC(C#N)(NC(=O)C2=CC=C3NC(=O)CC3=C2)CC1
##########            Long Name:   NO_LONG_NAME
##########          FlexRecCode: 1
##########               Number:                  546
##########   Ligand Source File: /proj/zinc22/users/x_andlu/OGG1/revisions/docking/targets/smyd3/db2gen/split_par
##########                 Rank:                    1
##########               Setnum:                   12
##########             Matchnum:                    1
##########                Cloud:                    1
##########        Electrostatic:           -28.463663
##########                 Gist:             0.000000
##########        Van der Waals:           -31.402527
##########  Ligand Polar Desolv:            12.276288
########## Ligand Apolar Desolv:            -2.011233
##########      Internal Energy:             0.000000
##########      Receptor Energy:             0.000000
########## Receptor Desolvation:             0.000000
########## Receptor Hydrophobic:             0.000000
##########         Total Energy:           -49.601135
##########        Ligand Charge:             1.000000
##########            Arbitrary:    +999.9990
##########        Ligand Energy:             0.000000

@<TRIPOS>MOLECULE
smyd3_207      none
   44    46     0     0     0
SMALL
USER_CHARGES

@<TRIPOS>ATOM
      1 C1         20.7997   -1.4879   16.2193 C.3       1 <0>        -0.1900
      2 C2         20.1041   -0.7745   15.0582 C.3       1 <0>        -0.0100
      3 N1         19.1142    0.1726   15.5879 N.4       1 <0>        -0.3900
      4 H1         18.4300   -0.3292   16.1339 H         1 <0>         0.4300
      5 C3         18.4447    0.8530   14.4730 C.3       1 <0>        -0.0100
      6 C4         17.3563    1.7813   15.0163 C.3       1 <0>        -0.1500
      7 C5         17.9951    2.8212   15.9413 C.3       1 <0>         0.2800
      8 C6         18.9316    3.6559   15.1711 C.1       1 <0>         0.1700
      9 N2         19.6544    4.3000   14.5768 N.1       1 <0>        -0.3600
     10 N3         16.9501    3.6669   16.5234 N.am      1 <0>        -0.7200
     11 C7         16.1480    4.3949   15.7214 C.2       1 <0>         0.5800
     12 O1         16.2917    4.3497   14.5149 O.2       1 <0>        -0.5200
     13 C8         15.0952    5.2472   16.3077 C.ar      1 <0>        -0.1800
     14 C9         14.5363    4.9231   17.5467 C.ar      1 <0>        -0.0400
     15 C10        13.5587    5.7199   18.0951 C.ar      1 <0>        -0.1500
     16 C11        13.1088    6.8530   17.4144 C.ar      1 <0>         0.1900
     17 N4         12.1433    7.7930   17.7591 N.am      1 <0>        -0.6600
     18 C12        12.0007    8.7465   16.8236 C.2       1 <0>         0.5300
     19 O2         11.2350    9.6862   16.8638 O.2       1 <0>        -0.4800
     20 C13        12.9762    8.4288   15.7103 C.3       1 <0>        -0.1200
     21 C14        13.6661    7.1674   16.1777 C.ar      1 <0>        -0.1500
     22 C15        14.6455    6.3820   15.6244 C.ar      1 <0>         0.0000
     23 C16        18.7528    2.1005   17.0601 C.3       1 <0>        -0.1600
     24 C17        19.7897    1.1588   16.4397 C.3       1 <0>        -0.0100
     25 H2         21.5343   -2.1908   15.8262 H         1 <0>         0.1100
     26 H3         21.3009   -0.7531   16.8494 H         1 <0>         0.0800
     27 H4         20.0596   -2.0281   16.8095 H         1 <0>         0.0800
     28 H5         19.6031   -1.5094   14.4281 H         1 <0>         0.1300
     29 H6         20.8445   -0.2343   14.4680 H         1 <0>         0.1300
     30 H7         17.9933    0.1114   13.8138 H         1 <0>         0.1500
     31 H8         19.1747    1.4382   13.9138 H         1 <0>         0.1300
     32 H9         16.6253    1.1970   15.5755 H         1 <0>         0.1200
     33 H10        16.8610    2.2869   14.1875 H         1 <0>         0.1300
     34 H11        16.8354    3.7030   17.4859 H         1 <0>         0.4200
     35 H12        14.8758    4.0459   18.0773 H         1 <0>         0.1300
     36 H13        13.1339    5.4656   19.0548 H         1 <0>         0.1400
     37 H14        11.6304    7.7631   18.5818 H         1 <0>         0.4200
     38 H15        13.6973    9.2373   15.5917 H         1 <0>         0.1300
     39 H16        12.4444    8.2496   14.7758 H         1 <0>         0.1300
     40 H17        15.0677    6.6388   14.6641 H         1 <0>         0.1500
     41 H18        19.2554    2.8339   17.6906 H         1 <0>         0.1400
     42 H19        18.0508    1.5228   17.6616 H         1 <0>         0.1200
     43 H20        20.3313    0.6432   17.2326 H         1 <0>         0.1500
     44 H21        20.4908    1.7379   15.8386 H         1 <0>         0.1300
@<TRIPOS>BOND
     1    1    2 1
     2    1   25 1
     3    1   26 1
     4    1   27 1
     5    2    3 1
     6    2   28 1
     7    2   29 1
     8    3    4 1
     9    3   24 1
    10    3    5 1
    11    5    6 1
    12    5   30 1
    13    5   31 1
    14    6    7 1
    15    6   32 1
    16    6   33 1
    17    7    8 1
    18    7   10 1
    19    7   23 1
    20    8    9 3
    21   10   11 am
    22   10   34 1
    23   11   12 2
    24   11   13 1
    25   13   22 ar
    26   13   14 ar
    27   14   15 ar
    28   14   35 1
    29   15   16 ar
    30   15   36 1
    31   16   21 ar
    32   16   17 1
    33   17   18 am
    34   17   37 1
    35   18   19 2
    36   18   20 1
    37   20   21 1
    38   20   38 1
    39   20   39 1
    40   21   22 ar
    41   22   40 1
    42   23   24 1
    43   23   41 1
    44   23   42 1
    45   24   43 1
    46   24   44 1
##########                 Name:            smyd3_211
##########          Protonation:                 none
##########               SMILES:   C=CCC1(NC(=O)C2=CC=C3NC(=O)CC3=C2)CC[NH+](C)CC1
##########            Long Name:   NO_LONG_NAME
##########          FlexRecCode: 1
##########               Number:                  554
##########   Ligand Source File: /proj/zinc22/users/x_andlu/OGG1/revisions/docking/targets/smyd3/db2gen/split_par
##########                 Rank:                    1
##########               Setnum:                   14
##########             Matchnum:                    2
##########                Cloud:                    1
##########        Electrostatic:           -23.011856
##########                 Gist:             0.000000
##########        Van der Waals:           -33.163303
##########  Ligand Polar Desolv:             9.201804
########## Ligand Apolar Desolv:            -2.642394
##########      Internal Energy:             0.000000
##########      Receptor Energy:             0.000000
########## Receptor Desolvation:             0.000000
########## Receptor Hydrophobic:             0.000000
##########         Total Energy:           -49.615749
##########        Ligand Charge:             1.000000
##########            Arbitrary:    +999.9990
##########        Ligand Energy:             0.000000

@<TRIPOS>MOLECULE
smyd3_211      none
   47    49     0     0     0
SMALL
USER_CHARGES

@<TRIPOS>ATOM
      1 C1         18.9166    6.0849   15.2720 C.2       1 <0>        -0.1700
      2 C2         19.2146    4.9250   15.8029 C.2       1 <0>        -0.1700
      3 C3         18.9418    3.6545   15.0396 C.3       1 <0>        -0.1100
      4 C4         17.9746    2.7777   15.8375 C.3       1 <0>         0.1800
      5 N1         16.9422    3.6182   16.4491 N.am      1 <0>        -0.7300
      6 C5         16.1354    4.3674   15.6718 C.2       1 <0>         0.5700
      7 O1         16.2644    4.3457   14.4630 O.2       1 <0>        -0.5200
      8 C6         15.0954    5.2143   16.2879 C.ar      1 <0>        -0.1800
      9 C7         14.5493    4.8687   17.5268 C.ar      1 <0>        -0.0500
     10 C8         13.5841    5.6607   18.1030 C.ar      1 <0>        -0.1500
     11 C9         13.1340    6.8106   17.4511 C.ar      1 <0>         0.1900
     12 N2         12.1799    7.7502   17.8272 N.am      1 <0>        -0.6600
     13 C10        12.0327    8.7237   16.9132 C.2       1 <0>         0.5300
     14 O2         11.2735    9.6670   16.9816 O.2       1 <0>        -0.4800
     15 C11        12.9919    8.4219   15.7814 C.3       1 <0>        -0.1200
     16 C12        13.6782    7.1464   16.2142 C.ar      1 <0>        -0.1500
     17 C13        14.6453    6.3657   15.6332 C.ar      1 <0>         0.0000
     18 C14        17.3173    1.7571   14.9041 C.3       1 <0>        -0.1500
     19 C15        16.4119    0.8343   15.7227 C.3       1 <0>        -0.0100
     20 N3         17.2100    0.1315   16.7344 N.4       1 <0>        -0.3800
     21 H1         17.9538   -0.3775   16.2807 H         1 <0>         0.4300
     22 C16        16.3517   -0.8100   17.4658 C.3       1 <0>        -0.0500
     23 C17        17.7851    1.0996   17.6760 C.3       1 <0>        -0.0100
     24 C18        18.7433    2.0326   16.9325 C.3       1 <0>        -0.1600
     25 H2         18.4753    6.1308   14.2874 H         1 <0>         0.1000
     26 H3         19.1122    6.9953   15.8192 H         1 <0>         0.1000
     27 H4         19.6559    4.8791   16.7876 H         1 <0>         0.1100
     28 H5         19.8768    3.1160   14.8846 H         1 <0>         0.1000
     29 H6         18.4988    3.8987   14.0741 H         1 <0>         0.0800
     30 H7         16.8395    3.6356   17.4134 H         1 <0>         0.4000
     31 H8         14.8890    3.9784   18.0352 H         1 <0>         0.1300
     32 H9         13.1694    5.3901   19.0628 H         1 <0>         0.1400
     33 H10        11.6775    7.7074   18.6558 H         1 <0>         0.4200
     34 H11        13.7175    9.2276   15.6703 H         1 <0>         0.1300
     35 H12        12.4492    8.2664   14.8490 H         1 <0>         0.1300
     36 H13        15.0576    6.6390   14.6731 H         1 <0>         0.1500
     37 H14        16.7225    2.2794   14.1547 H         1 <0>         0.1200
     38 H15        18.0885    1.1658   14.4102 H         1 <0>         0.1100
     39 H16        15.9421    0.1065   15.0612 H         1 <0>         0.1400
     40 H17        15.6409    1.4264   16.2159 H         1 <0>         0.1200
     41 H18        16.9436   -1.3326   18.2174 H         1 <0>         0.1200
     42 H19        15.5455   -0.2627   17.9543 H         1 <0>         0.1200
     43 H20        15.9293   -1.5336   16.7686 H         1 <0>         0.1200
     44 H21        18.3292    0.5677   18.4564 H         1 <0>         0.1300
     45 H22        16.9849    1.6860   18.1274 H         1 <0>         0.1300
     46 H23        19.5442    1.4471   16.4808 H         1 <0>         0.1000
     47 H24        19.1679    2.7517   17.6328 H         1 <0>         0.1300
@<TRIPOS>BOND
     1    1    2 2
     2    1   25 1
     3    1   26 1
     4    2    3 1
     5    2   27 1
     6    3    4 1
     7    3   28 1
     8    3   29 1
     9    4   24 1
    10    4    5 1
    11    4   18 1
    12    5    6 am
    13    5   30 1
    14    6    7 2
    15    6    8 1
    16    8   17 ar
    17    8    9 ar
    18    9   10 ar
    19    9   31 1
    20   10   11 ar
    21   10   32 1
    22   11   16 ar
    23   11   12 1
    24   12   13 am
    25   12   33 1
    26   13   14 2
    27   13   15 1
    28   15   16 1
    29   15   34 1
    30   15   35 1
    31   16   17 ar
    32   17   36 1
    33   18   19 1
    34   18   37 1
    35   18   38 1
    36   19   20 1
    37   19   39 1
    38   19   40 1
    39   20   21 1
    40   20   22 1
    41   20   23 1
    42   22   41 1
    43   22   42 1
    44   22   43 1
    45   23   24 1
    46   23   44 1
    47   23   45 1
    48   24   46 1
    49   24   47 1
##########                 Name:            smyd3_213
##########          Protonation:                 none
##########               SMILES:   CC(=O)N1CCC(C)(NC(=O)C2=CC=C3NC(=O)CC3=C2)CC1
##########            Long Name:   NO_LONG_NAME
##########          FlexRecCode: 1
##########               Number:                  558
##########   Ligand Source File: /proj/zinc22/users/x_andlu/OGG1/revisions/docking/targets/smyd3/db2gen/split_par
##########                 Rank:                    1
##########               Setnum:                    7
##########             Matchnum:                    7
##########                Cloud:                    1
##########        Electrostatic:           -20.123407
##########                 Gist:             0.000000
##########        Van der Waals:           -32.440659
##########  Ligand Polar Desolv:             6.271704
########## Ligand Apolar Desolv:            -1.920793
##########      Internal Energy:             0.000000
##########      Receptor Energy:             0.000000
########## Receptor Desolvation:             0.000000
########## Receptor Hydrophobic:             0.000000
##########         Total Energy:           -48.213150
##########        Ligand Charge:             0.000000
##########            Arbitrary:    +999.9990
##########        Ligand Energy:             0.000000

@<TRIPOS>MOLECULE
smyd3_213      none
   44    46     0     0     0
SMALL
USER_CHARGES

@<TRIPOS>ATOM
      1 C1         14.9618   -1.9114   16.4520 C.3       1 <0>        -0.1800
      2 C2         16.2041   -1.2253   16.9586 C.2       1 <0>         0.5100
      3 O1         17.0640   -1.8676   17.5235 O.2       1 <0>        -0.5500
      4 N1         16.3597    0.1019   16.7842 N.am      1 <0>        -0.6100
      5 C3         17.1311    0.8985   17.7482 C.3       1 <0>         0.1100
      6 C4         18.2103    1.6790   16.9912 C.3       1 <0>        -0.1400
      7 C5         17.5544    2.5008   15.8792 C.3       1 <0>         0.1800
      8 C6         18.6252    3.3081   15.1428 C.3       1 <0>        -0.1600
      9 N2         16.5699    3.4147   16.4636 N.am      1 <0>        -0.7200
     10 C7         15.8636    4.2425   15.6683 C.2       1 <0>         0.5700
     11 O2         16.0436    4.2308   14.4660 O.2       1 <0>        -0.5300
     12 C8         14.8717    5.1634   16.2571 C.ar      1 <0>        -0.1600
     13 C9         14.2443    4.8438   17.4640 C.ar      1 <0>        -0.0500
     14 C10        13.3239    5.7042   18.0149 C.ar      1 <0>        -0.1500
     15 C11        13.0009    6.8992   17.3687 C.ar      1 <0>         0.1700
     16 N3         12.1129    7.9093   17.7232 N.am      1 <0>        -0.6600
     17 C12        12.0882    8.9074   16.8243 C.2       1 <0>         0.5300
     18 O3         11.4082    9.9100   16.8800 O.2       1 <0>        -0.4900
     19 C13        13.0679    8.5452   15.7285 C.3       1 <0>        -0.1200
     20 C14        13.6254    7.2091   16.1634 C.ar      1 <0>        -0.1500
     21 C15        14.5488    6.3598   15.6080 C.ar      1 <0>        -0.0000
     22 C16        16.8560    1.5615   14.8931 C.3       1 <0>        -0.1500
     23 C17        15.7615    0.7799   15.6261 C.3       1 <0>         0.1100
     24 H1         14.3100   -1.1783   15.9767 H         1 <0>         0.1000
     25 H2         15.2392   -2.6756   15.7260 H         1 <0>         0.0900
     26 H3         14.4374   -2.3766   17.2867 H         1 <0>         0.0800
     27 H4         17.6013    0.2367   18.4756 H         1 <0>         0.1000
     28 H5         16.4676    1.5953   18.2603 H         1 <0>         0.0600
     29 H6         18.9252    0.9814   16.5548 H         1 <0>         0.0900
     30 H7         18.7276    2.3467   17.6801 H         1 <0>         0.0800
     31 H8         18.1584    3.8936   14.3506 H         1 <0>         0.0600
     32 H9         19.1222    3.9778   15.8447 H         1 <0>         0.0600
     33 H10        19.3582    2.6283   14.7084 H         1 <0>         0.0800
     34 H11        16.4233    3.4211   17.4224 H         1 <0>         0.4000
     35 H12        14.4857    3.9194   17.9677 H         1 <0>         0.1300
     36 H13        12.8461    5.4531   18.9503 H         1 <0>         0.1400
     37 H14        11.5725    7.8948   18.5286 H         1 <0>         0.4200
     38 H15        13.8626    9.2886   15.6652 H         1 <0>         0.1300
     39 H16        12.5559    8.4522   14.7707 H         1 <0>         0.1300
     40 H17        15.0245    6.6139   14.6723 H         1 <0>         0.1500
     41 H18        16.4089    2.1457   14.0888 H         1 <0>         0.1000
     42 H19        17.5836    0.8651   14.4764 H         1 <0>         0.0800
     43 H20        15.3279    0.0399   14.9532 H         1 <0>         0.0900
     44 H21        14.9846    1.4652   15.9650 H         1 <0>         0.0700
@<TRIPOS>BOND
     1    1    2 1
     2    1   24 1
     3    1   25 1
     4    1   26 1
     5    2    3 2
     6    2    4 am
     7    4   23 1
     8    4    5 1
     9    5    6 1
    10    5   27 1
    11    5   28 1
    12    6    7 1
    13    6   29 1
    14    6   30 1
    15    7    8 1
    16    7    9 1
    17    7   22 1
    18    8   31 1
    19    8   32 1
    20    8   33 1
    21    9   10 am
    22    9   34 1
    23   10   11 2
    24   10   12 1
    25   12   21 ar
    26   12   13 ar
    27   13   14 ar
    28   13   35 1
    29   14   15 ar
    30   14   36 1
    31   15   20 ar
    32   15   16 1
    33   16   17 am
    34   16   37 1
    35   17   18 2
    36   17   19 1
    37   19   20 1
    38   19   38 1
    39   19   39 1
    40   20   21 ar
    41   21   40 1
    42   22   23 1
    43   22   41 1
    44   22   42 1
    45   23   43 1
    46   23   44 1
##########                 Name:            smyd3_214
##########          Protonation:                 none
##########               SMILES:   CN1CCC(CCO)(NC(=O)C2=CC=C3NC(=O)CC3=C2)CC1
##########            Long Name:   NO_LONG_NAME
##########          FlexRecCode: 1
##########               Number:                  560
##########   Ligand Source File: /proj/zinc22/users/x_andlu/OGG1/revisions/docking/targets/smyd3/db2gen/split_par
##########                 Rank:                    1
##########               Setnum:                   43
##########             Matchnum:                    8
##########                Cloud:                    1
##########        Electrostatic:           -22.909679
##########                 Gist:             0.000000
##########        Van der Waals:           -32.219353
##########  Ligand Polar Desolv:             6.278028
########## Ligand Apolar Desolv:            -0.673175
##########      Internal Energy:             0.000000
##########      Receptor Energy:             0.000000
########## Receptor Desolvation:             0.000000
########## Receptor Hydrophobic:             0.000000
##########         Total Energy:           -49.524181
##########        Ligand Charge:             0.000000
##########            Arbitrary:    +999.9990
##########        Ligand Energy:             0.000000

@<TRIPOS>MOLECULE
smyd3_214      none
   46    48     0     0     0
SMALL
USER_CHARGES

@<TRIPOS>ATOM
      1 C1         15.4376   -0.8897   17.6389 C.3       1 <0>         0.0200
      2 N1         16.3499   -0.0052   16.9019 N.3       1 <0>        -0.5400
      3 C2         17.0447    0.9124   17.8140 C.3       1 <0>         0.0600
      4 C3         18.0885    1.7153   17.0344 C.3       1 <0>        -0.1300
      5 C4         17.3924    2.5027   15.9208 C.3       1 <0>         0.1900
      6 C5         18.4378    3.2613   15.1006 C.3       1 <0>        -0.1300
      7 C6         19.4215    2.2658   14.4823 C.3       1 <0>         0.0800
      8 O1         20.3977    2.9744   13.7163 O.3       1 <0>        -0.5700
      9 N2         16.4482    3.4546   16.5110 N.am      1 <0>        -0.7200
     10 C7         15.7175    4.2604   15.7151 C.2       1 <0>         0.5700
     11 O2         15.8421    4.1973   14.5073 O.2       1 <0>        -0.5200
     12 C8         14.7663    5.2196   16.3096 C.ar      1 <0>        -0.1600
     13 C9         14.1905    4.9589   17.5558 C.ar      1 <0>        -0.0500
     14 C10        13.3080    5.8551   18.1118 C.ar      1 <0>        -0.1500
     15 C11        12.9720    7.0276   17.4321 C.ar      1 <0>         0.1700
     16 N3         12.1149    8.0649   17.7845 N.am      1 <0>        -0.6600
     17 C12        12.0626    9.0260   16.8473 C.2       1 <0>         0.5300
     18 O3         11.3996   10.0405   16.8923 O.2       1 <0>        -0.4900
     19 C13        12.9862    8.6047   15.7241 C.3       1 <0>        -0.1200
     20 C14        13.5449    7.2787   16.1882 C.ar      1 <0>        -0.1500
     21 C15        14.4302    6.3935   15.6270 C.ar      1 <0>        -0.0000
     22 C16        16.6368    1.5292   15.0120 C.3       1 <0>        -0.1200
     23 C17        15.6348    0.7307   15.8514 C.3       1 <0>         0.0500
     24 H1         15.9929   -1.4226   18.4108 H         1 <0>         0.0200
     25 H2         14.6505   -0.2951   18.1026 H         1 <0>         0.0700
     26 H3         14.9926   -1.6079   16.9503 H         1 <0>         0.0700
     27 H4         17.5388    0.3395   18.5985 H         1 <0>         0.0800
     28 H5         16.3224    1.5945   18.2624 H         1 <0>         0.0300
     29 H6         18.8189    1.0347   16.5969 H         1 <0>         0.0800
     30 H7         18.5931    2.4073   17.7087 H         1 <0>         0.0900
     31 H8         17.9413    3.8213   14.3081 H         1 <0>         0.1000
     32 H9         18.9780    3.9508   15.7493 H         1 <0>         0.0800
     33 H10        19.9178    1.7058   15.2747 H         1 <0>         0.0400
     34 H11        18.8812    1.5764   13.8336 H         1 <0>         0.0400
     35 H12        21.0555    2.4049   13.2941 H         1 <0>         0.3800
     36 H13        16.3486    3.5050   17.4745 H         1 <0>         0.4000
     37 H14        14.4419    4.0521   18.0857 H         1 <0>         0.1300
     38 H15        12.8702    5.6494   19.0774 H         1 <0>         0.1300
     39 H16        11.6117    8.0913   18.6133 H         1 <0>         0.4200
     40 H17        13.7871    9.3325   15.5945 H         1 <0>         0.1300
     41 H18        12.4297    8.4807   14.7951 H         1 <0>         0.1300
     42 H19        14.8660    6.6021   14.6611 H         1 <0>         0.1500
     43 H20        16.1050    2.0884   14.2422 H         1 <0>         0.0800
     44 H21        17.3444    0.8456   14.5428 H         1 <0>         0.0900
     45 H22        15.1051    0.0258   15.2105 H         1 <0>         0.0800
     46 H23        14.9194    1.4139   16.3092 H         1 <0>         0.0300
@<TRIPOS>BOND
     1    1    2 1
     2    1   24 1
     3    1   25 1
     4    1   26 1
     5    2   23 1
     6    2    3 1
     7    3    4 1
     8    3   27 1
     9    3   28 1
    10    4    5 1
    11    4   29 1
    12    4   30 1
    13    5    6 1
    14    5    9 1
    15    5   22 1
    16    6    7 1
    17    6   31 1
    18    6   32 1
    19    7    8 1
    20    7   33 1
    21    7   34 1
    22    8   35 1
    23    9   10 am
    24    9   36 1
    25   10   11 2
    26   10   12 1
    27   12   21 ar
    28   12   13 ar
    29   13   14 ar
    30   13   37 1
    31   14   15 ar
    32   14   38 1
    33   15   20 ar
    34   15   16 1
    35   16   17 am
    36   16   39 1
    37   17   18 2
    38   17   19 1
    39   19   20 1
    40   19   40 1
    41   19   41 1
    42   20   21 ar
    43   21   42 1
    44   22   23 1
    45   22   43 1
    46   22   44 1
    47   23   45 1
    48   23   46 1
##########                 Name:            smyd3_258
##########          Protonation:                 none
##########               SMILES:   CC[NH+]1CC2CCC(C1)C2NC(=O)C1=CC=C2NC(=O)CC2=C1
##########            Long Name:   NO_LONG_NAME
##########          FlexRecCode: 1
##########               Number:                  677
##########   Ligand Source File: /proj/zinc22/users/x_andlu/OGG1/revisions/docking/targets/smyd3/db2gen/split_par
##########                 Rank:                    1
##########               Setnum:                    9
##########             Matchnum:                    4
##########                Cloud:                    1
##########        Electrostatic:           -23.550629
##########                 Gist:             0.000000
##########        Van der Waals:           -32.227032
##########  Ligand Polar Desolv:             8.940350
########## Ligand Apolar Desolv:            -2.619583
##########      Internal Energy:             0.000000
##########      Receptor Energy:             0.000000
########## Receptor Desolvation:             0.000000
########## Receptor Hydrophobic:             0.000000
##########         Total Energy:           -49.456894
##########        Ligand Charge:             1.000000
##########            Arbitrary:    +999.9990
##########        Ligand Energy:             0.000000

@<TRIPOS>MOLECULE
smyd3_258      none
   47    50     0     0     0
SMALL
USER_CHARGES

@<TRIPOS>ATOM
      1 C1         14.8200   -1.2599   16.9617 C.3       1 <0>        -0.1900
      2 C2         15.6158   -0.2689   17.8134 C.3       1 <0>        -0.0100
      3 N1         16.6998    0.3091   17.0079 N.4       1 <0>        -0.3800
      4 H1         17.3083   -0.4311   16.6917 H         1 <0>         0.4200
      5 C3         16.1237    0.9899   15.8426 C.3       1 <0>        -0.0100
      6 C4         17.2580    1.6145   15.0100 C.3       1 <0>        -0.1100
      7 C5         18.3838    0.5582   14.9054 C.3       1 <0>        -0.1400
      8 C6         19.2403    0.7210   16.1748 C.3       1 <0>        -0.1500
      9 C7         18.5909    1.8680   16.9854 C.3       1 <0>        -0.1200
     10 C8         17.4692    1.2447   17.8360 C.3       1 <0>        -0.0100
     11 C9         17.8880    2.7238   15.8962 C.3       1 <0>         0.1400
     12 N2         16.8549    3.5807   16.4834 N.am      1 <0>        -0.7400
     13 C10        16.0741    4.3373   15.6869 C.2       1 <0>         0.5700
     14 O1         16.2271    4.3087   14.4810 O.2       1 <0>        -0.5100
     15 C11        15.0332    5.2005   16.2784 C.ar      1 <0>        -0.1800
     16 C12        14.4574    4.8673   17.5073 C.ar      1 <0>        -0.0500
     17 C13        13.4884    5.6723   18.0586 C.ar      1 <0>        -0.1500
     18 C14        13.0712    6.8284   17.3961 C.ar      1 <0>         0.1900
     19 N3         12.1233    7.7829   17.7496 N.am      1 <0>        -0.6600
     20 C15        12.0121    8.7577   16.8319 C.2       1 <0>         0.5300
     21 O2         11.2661    9.7126   16.8823 O.2       1 <0>        -0.4800
     22 C16        12.9921    8.4400   15.7224 C.3       1 <0>        -0.1200
     23 C17        13.6486    7.1545   16.1717 C.ar      1 <0>        -0.1500
     24 C18        14.6202    6.3613   15.6158 C.ar      1 <0>         0.0000
     25 H2         14.0157   -1.6887   17.5594 H         1 <0>         0.0800
     26 H3         15.4806   -2.0554   16.6172 H         1 <0>         0.1100
     27 H4         14.3965   -0.7413   16.1014 H         1 <0>         0.0800
     28 H5         14.9551    0.5267   18.1577 H         1 <0>         0.1300
     29 H6         16.0392   -0.7873   18.6737 H         1 <0>         0.1300
     30 H7         15.5791    0.2694   15.2324 H         1 <0>         0.1400
     31 H8         15.4432    1.7727   16.1777 H         1 <0>         0.1200
     32 H9         16.9300    1.9826   14.0379 H         1 <0>         0.1400
     33 H10        18.9896    0.7420   14.0180 H         1 <0>         0.1000
     34 H11        17.9570   -0.4441   14.8669 H         1 <0>         0.0800
     35 H12        20.2634    0.9841   15.9059 H         1 <0>         0.1000
     36 H13        19.2298   -0.2015   16.7554 H         1 <0>         0.0800
     37 H14        19.3120    2.4270   17.5817 H         1 <0>         0.1400
     38 H15        16.8109    2.0317   18.2039 H         1 <0>         0.1300
     39 H16        17.9051    0.7102   18.6802 H         1 <0>         0.1300
     40 H17        18.6110    3.3135   15.3327 H         1 <0>         0.1200
     41 H18        16.7328    3.6034   17.4454 H         1 <0>         0.4000
     42 H19        14.7748    3.9748   18.0259 H         1 <0>         0.1300
     43 H20        13.0481    5.4092   19.0091 H         1 <0>         0.1400
     44 H21        11.6012    7.7485   18.5664 H         1 <0>         0.4200
     45 H22        13.7324    9.2344   15.6275 H         1 <0>         0.1300
     46 H23        12.4685    8.2920   14.7780 H         1 <0>         0.1300
     47 H24        15.0619    6.6299   14.6676 H         1 <0>         0.1500
@<TRIPOS>BOND
     1    1    2 1
     2    1   25 1
     3    1   26 1
     4    1   27 1
     5    2    3 1
     6    2   28 1
     7    2   29 1
     8    3    4 1
     9    3   10 1
    10    3    5 1
    11    5    6 1
    12    5   30 1
    13    5   31 1
    14    6   11 1
    15    6    7 1
    16    6   32 1
    17    7    8 1
    18    7   33 1
    19    7   34 1
    20    8    9 1
    21    8   35 1
    22    8   36 1
    23    9   10 1
    24    9   11 1
    25    9   37 1
    26   10   38 1
    27   10   39 1
    28   11   12 1
    29   11   40 1
    30   12   13 am
    31   12   41 1
    32   13   14 2
    33   13   15 1
    34   15   24 ar
    35   15   16 ar
    36   16   17 ar
    37   16   42 1
    38   17   18 ar
    39   17   43 1
    40   18   23 ar
    41   18   19 1
    42   19   20 am
    43   19   44 1
    44   20   21 2
    45   20   22 1
    46   22   23 1
    47   22   45 1
    48   22   46 1
    49   23   24 ar
    50   24   47 1
##########                 Name:            smyd3_259
##########          Protonation:                 none
##########               SMILES:   O=C1CC2=C(C=CC(C(=O)NC3C4CC5CC3C[NH+](C5)C4)=C2)N1
##########            Long Name:   NO_LONG_NAME
##########          FlexRecCode: 1
##########               Number:                  678
##########   Ligand Source File: /proj/zinc22/users/x_andlu/OGG1/revisions/docking/targets/smyd3/db2gen/split_par
##########                 Rank:                    1
##########               Setnum:                    9
##########             Matchnum:                   17
##########                Cloud:                    1
##########        Electrostatic:           -24.372044
##########                 Gist:             0.000000
##########        Van der Waals:           -31.419418
##########  Ligand Polar Desolv:            10.346713
########## Ligand Apolar Desolv:            -2.310398
##########      Internal Energy:             0.000000
##########      Receptor Energy:             0.000000
########## Receptor Desolvation:             0.000000
########## Receptor Hydrophobic:             0.000000
##########         Total Energy:           -47.755146
##########        Ligand Charge:             1.000000
##########            Arbitrary:    +999.9990
##########        Ligand Energy:             0.000000

@<TRIPOS>MOLECULE
smyd3_259      none
   45    49     0     0     0
SMALL
USER_CHARGES

@<TRIPOS>ATOM
      1 O1         11.2240    9.6247   16.9907 O.2       1 <0>        -0.4800
      2 C1         12.0017    8.6968   16.9206 C.2       1 <0>         0.5300
      3 C2         12.9674    8.4164   15.7888 C.3       1 <0>        -0.1200
      4 C3         13.6798    7.1548   16.2205 C.ar      1 <0>        -0.1500
      5 C4         13.1425    6.8063   17.4563 C.ar      1 <0>         0.1900
      6 C5         13.6160    5.6645   18.1067 C.ar      1 <0>        -0.1500
      7 C6         14.5971    4.8935   17.5297 C.ar      1 <0>        -0.0500
      8 C7         15.1362    5.2520   16.2909 C.ar      1 <0>        -0.1700
      9 C8         16.1930    4.4271   15.6733 C.2       1 <0>         0.5700
     10 O2         16.3189    4.4058   14.4642 O.2       1 <0>        -0.5200
     11 N1         17.0183    3.6975   16.4498 N.am      1 <0>        -0.7400
     12 C9         18.0672    2.8789   15.8369 C.3       1 <0>         0.1500
     13 C10        17.4305    1.8394   14.9082 C.3       1 <0>        -0.1100
     14 C11        18.5397    1.0094   14.2531 C.3       1 <0>        -0.1200
     15 C12        19.3257    0.2819   15.3489 C.3       1 <0>        -0.1100
     16 C13        19.9638    1.3178   16.2794 C.3       1 <0>        -0.1200
     17 C14        18.8538    2.1490   16.9306 C.3       1 <0>        -0.1200
     18 C15        17.9076    1.2136   17.6874 C.3       1 <0>        -0.0000
     19 N2         17.3214    0.2384   16.7655 N.4       1 <0>        -0.3800
     20 H1         16.7077   -0.3669   17.2898 H         1 <0>         0.4200
     21 C16        18.3638   -0.5916   16.1581 C.3       1 <0>        -0.0000
     22 C17        16.5223    0.9115   15.7181 C.3       1 <0>        -0.0000
     23 C18        14.6629    6.3947   15.6381 C.ar      1 <0>         0.0000
     24 N3         12.1688    7.7253   17.8333 N.am      1 <0>        -0.6600
     25 H2         13.6761    9.2371   15.6791 H         1 <0>         0.1300
     26 H3         12.4264    8.2501   14.8573 H         1 <0>         0.1300
     27 H4         13.2068    5.3838   19.0660 H         1 <0>         0.1400
     28 H5         14.9550    4.0098   18.0369 H         1 <0>         0.1300
     29 H6         16.9178    3.7144   17.4145 H         1 <0>         0.4000
     30 H7         18.7423    3.5152   15.2645 H         1 <0>         0.1200
     31 H8         16.8467    2.3441   14.1384 H         1 <0>         0.1300
     32 H9         18.0976    0.2796   13.5749 H         1 <0>         0.0900
     33 H10        19.2079    1.6671   13.6971 H         1 <0>         0.1000
     34 H11        20.1035   -0.3327   14.8957 H         1 <0>         0.1200
     35 H12        20.5400    0.8089   17.0522 H         1 <0>         0.0900
     36 H13        20.6209    1.9700   15.7040 H         1 <0>         0.1000
     37 H14        19.2919    2.8671   17.6238 H         1 <0>         0.1200
     38 H15        18.4633    0.6880   18.4640 H         1 <0>         0.1300
     39 H16        17.1109    1.7990   18.1462 H         1 <0>         0.1300
     40 H17        17.9021   -1.3272   15.4993 H         1 <0>         0.1300
     41 H18        18.9173   -1.1082   16.9423 H         1 <0>         0.1300
     42 H19        15.7348    1.4985   16.1906 H         1 <0>         0.1200
     43 H20        16.0719    0.1751   15.0526 H         1 <0>         0.1400
     44 H21        15.0698    6.6780   14.6786 H         1 <0>         0.1500
     45 H22        11.6671    7.6709   18.6617 H         1 <0>         0.4200
@<TRIPOS>BOND
     1    1    2 2
     2    2   24 am
     3    2    3 1
     4    3    4 1
     5    3   25 1
     6    3   26 1
     7    4   23 ar
     8    4    5 ar
     9    5    6 ar
    10    5   24 1
    11    6    7 ar
    12    6   27 1
    13    7    8 ar
    14    7   28 1
    15    8    9 1
    16    8   23 ar
    17    9   10 2
    18    9   11 am
    19   11   12 1
    20   11   29 1
    21   12   17 1
    22   12   13 1
    23   12   30 1
    24   13   22 1
    25   13   14 1
    26   13   31 1
    27   14   15 1
    28   14   32 1
    29   14   33 1
    30   15   21 1
    31   15   16 1
    32   15   34 1
    33   16   17 1
    34   16   35 1
    35   16   36 1
    36   17   18 1
    37   17   37 1
    38   18   19 1
    39   18   38 1
    40   18   39 1
    41   19   20 1
    42   19   21 1
    43   19   22 1
    44   21   40 1
    45   21   41 1
    46   22   42 1
    47   22   43 1
    48   23   44 1
    49   24   45 1
##########                 Name:            smyd3_278
##########          Protonation:                 none
##########               SMILES:   CC1(C)CC(NC(=O)C2=CC=C3NC(=O)CC3=C2)CC(C)(C)[NH2+]1
##########            Long Name:   NO_LONG_NAME
##########          FlexRecCode: 1
##########               Number:                  725
##########   Ligand Source File: /proj/zinc22/users/x_andlu/OGG1/revisions/docking/targets/smyd3/db2gen/split_par
##########                 Rank:                    1
##########               Setnum:                    6
##########             Matchnum:                   11
##########                Cloud:                    1
##########        Electrostatic:           -26.179180
##########                 Gist:             0.000000
##########        Van der Waals:           -26.976910
##########  Ligand Polar Desolv:             8.633037
########## Ligand Apolar Desolv:            -1.748783
##########      Internal Energy:             0.000000
##########      Receptor Energy:             0.000000
########## Receptor Desolvation:             0.000000
########## Receptor Hydrophobic:             0.000000
##########         Total Energy:           -46.271835
##########        Ligand Charge:             1.000000
##########            Arbitrary:    +999.9990
##########        Ligand Energy:             0.000000

@<TRIPOS>MOLECULE
smyd3_278      none
   49    51     0     0     0
SMALL
USER_CHARGES

@<TRIPOS>ATOM
      1 C1         20.3510    3.4680   13.5519 C.3       1 <0>        -0.1800
      2 C2         20.4823    3.3336   15.0726 C.3       1 <0>         0.0600
      3 C3         21.8015    4.0320   15.4770 C.3       1 <0>        -0.1800
      4 C4         19.3429    4.0815   15.7568 C.3       1 <0>        -0.1400
      5 C5         18.0350    3.3028   15.6207 C.3       1 <0>         0.1400
      6 N1         16.9652    4.0275   16.3178 N.am      1 <0>        -0.7300
      7 C6         16.2177    4.9300   15.6519 C.2       1 <0>         0.5700
      8 O1         16.4293    5.1440   14.4740 O.2       1 <0>        -0.5300
      9 C7         15.1422    5.6585   16.3527 C.ar      1 <0>        -0.1700
     10 C8         14.5102    5.0862   17.4598 C.ar      1 <0>        -0.0500
     11 C9         13.5047    5.7629   18.1094 C.ar      1 <0>        -0.1500
     12 C10        13.1139    7.0313   17.6755 C.ar      1 <0>         0.1900
     13 N2         12.1422    7.8970   18.1665 N.am      1 <0>        -0.6600
     14 C11        12.0713    9.0387   17.4621 C.2       1 <0>         0.5300
     15 O2         11.3168    9.9658   17.6672 O.2       1 <0>        -0.4800
     16 C12        13.1094    8.9505   16.3637 C.3       1 <0>        -0.1200
     17 C13        13.7512    7.5982   16.5750 C.ar      1 <0>        -0.1500
     18 C14        14.7519    6.9291   15.9168 C.ar      1 <0>         0.0000
     19 C15        18.2232    1.9330   16.2724 C.3       1 <0>        -0.1400
     20 C16        19.3542    1.1699   15.5912 C.3       1 <0>         0.0600
     21 C17        18.8848    0.6572   14.2258 C.3       1 <0>        -0.1700
     22 C18        19.6622   -0.0718   16.4601 C.3       1 <0>        -0.1800
     23 N3         20.5790    1.9412   15.4733 N.4       1 <0>        -0.4900
     24 H1         21.1996    1.4599   14.8151 H         1 <0>         0.4300
     25 H2         21.0708    1.9001   16.3718 H         1 <0>         0.4200
     26 H3         20.2809    4.5225   13.2851 H         1 <0>         0.1100
     27 H4         21.2255    3.0291   13.0715 H         1 <0>         0.0800
     28 H5         19.4534    2.9481   13.2173 H         1 <0>         0.0800
     29 H6         21.9350    3.9596   16.5563 H         1 <0>         0.0800
     30 H7         22.6383    3.5472   14.9741 H         1 <0>         0.0800
     31 H8         21.7612    5.0815   15.1855 H         1 <0>         0.1100
     32 H9         19.2266    5.0668   15.2982 H         1 <0>         0.1200
     33 H10        19.5773    4.2137   16.8158 H         1 <0>         0.1000
     34 H11        17.7639    3.1928   14.5742 H         1 <0>         0.1100
     35 H12        16.7964    3.8570   17.2577 H         1 <0>         0.4100
     36 H13        14.8100    4.1075   17.8042 H         1 <0>         0.1300
     37 H14        13.0180    5.3131   18.9622 H         1 <0>         0.1400
     38 H15        11.5792    7.6987   18.9310 H         1 <0>         0.4200
     39 H16        13.8479    9.7450   16.4710 H         1 <0>         0.1300
     40 H17        12.6363    8.9998   15.3830 H         1 <0>         0.1300
     41 H18        15.2371    7.3822   15.0648 H         1 <0>         0.1500
     42 H19        18.4580    2.0649   17.3313 H         1 <0>         0.0900
     43 H20        17.2954    1.3616   16.1877 H         1 <0>         0.1100
     44 H21        19.6966    0.1128   13.7434 H         1 <0>         0.0800
     45 H22        18.0315   -0.0074   14.3610 H         1 <0>         0.1100
     46 H23        18.5925    1.5016   13.6016 H         1 <0>         0.0800
     47 H24        20.4691   -0.6442   16.0027 H         1 <0>         0.0800
     48 H25        19.9639    0.2483   17.4573 H         1 <0>         0.1100
     49 H26        18.7707   -0.6946   16.5326 H         1 <0>         0.0800
@<TRIPOS>BOND
     1    1    2 1
     2    1   26 1
     3    1   27 1
     4    1   28 1
     5    2   23 1
     6    2    3 1
     7    2    4 1
     8    3   29 1
     9    3   30 1
    10    3   31 1
    11    4    5 1
    12    4   32 1
    13    4   33 1
    14    5    6 1
    15    5   19 1
    16    5   34 1
    17    6    7 am
    18    6   35 1
    19    7    8 2
    20    7    9 1
    21    9   18 ar
    22    9   10 ar
    23   10   11 ar
    24   10   36 1
    25   11   12 ar
    26   11   37 1
    27   12   17 ar
    28   12   13 1
    29   13   14 am
    30   13   38 1
    31   14   15 2
    32   14   16 1
    33   16   17 1
    34   16   39 1
    35   16   40 1
    36   17   18 ar
    37   18   41 1
    38   19   20 1
    39   19   42 1
    40   19   43 1
    41   20   21 1
    42   20   22 1
    43   20   23 1
    44   21   44 1
    45   21   45 1
    46   21   46 1
    47   22   47 1
    48   22   48 1
    49   22   49 1
    50   23   24 1
    51   23   25 1
##########                 Name:            smyd3_305
##########          Protonation:                 none
##########               SMILES:   CC(C)(C)[NH+]1CCC(NC(=O)C2=CC=C3NC(=O)CC3=C2)CC1
##########            Long Name:   NO_LONG_NAME
##########          FlexRecCode: 1
##########               Number:                  786
##########   Ligand Source File: /proj/zinc22/users/x_andlu/OGG1/revisions/docking/targets/smyd3/db2gen/split_par
##########                 Rank:                    1
##########               Setnum:                    7
##########             Matchnum:                    2
##########                Cloud:                    1
##########        Electrostatic:           -20.123775
##########                 Gist:             0.000000
##########        Van der Waals:           -31.905882
##########  Ligand Polar Desolv:             7.019819
########## Ligand Apolar Desolv:            -2.208084
##########      Internal Energy:             0.000000
##########      Receptor Energy:             0.000000
########## Receptor Desolvation:             0.000000
########## Receptor Hydrophobic:             0.000000
##########         Total Energy:           -47.217918
##########        Ligand Charge:             1.000000
##########            Arbitrary:    +999.9990
##########        Ligand Energy:             0.000000

@<TRIPOS>MOLECULE
smyd3_305      none
   49    51     0     0     0
SMALL
USER_CHARGES

@<TRIPOS>ATOM
      1 C1         18.9815   -2.5504   15.9835 C.3       1 <0>        -0.1800
      2 C2         19.6051   -1.1536   16.0113 C.3       1 <0>         0.0500
      3 C3         20.1552   -0.8130   14.6249 C.3       1 <0>        -0.1800
      4 C4         20.7434   -1.1235   17.0332 C.3       1 <0>        -0.1800
      5 N1         18.5828   -0.1682   16.3880 N.4       1 <0>        -0.3800
      6 H1         18.2206   -0.3937   17.3024 H         1 <0>         0.4200
      7 C5         19.1833    1.1707   16.4177 C.3       1 <0>        -0.0100
      8 C6         18.1429    2.1904   16.8862 C.3       1 <0>        -0.1500
      9 C7         16.9566    2.1825   15.9179 C.3       1 <0>         0.1400
     10 N2         15.9232    3.1013   16.4019 N.am      1 <0>        -0.7300
     11 C8         15.9350    4.3926   16.0160 C.2       1 <0>         0.5700
     12 O1         16.8033    4.7950   15.2662 O.2       1 <0>        -0.5300
     13 C9         14.8938    5.3181   16.5037 C.ar      1 <0>        -0.1700
     14 C10        14.2624    5.0848   17.7281 C.ar      1 <0>        -0.0500
     15 C11        13.2917    5.9469   18.1818 C.ar      1 <0>        -0.1500
     16 C12        12.9290    7.0621   17.4239 C.ar      1 <0>         0.1900
     17 N3         11.9909    8.0589   17.6708 N.am      1 <0>        -0.6600
     18 C13        11.9396    8.9688   16.6839 C.2       1 <0>         0.5300
     19 O2         11.2153    9.9403   16.6370 O.2       1 <0>        -0.4800
     20 C14        12.9551    8.5534   15.6407 C.3       1 <0>        -0.1200
     21 C15        13.5656    7.2898   16.2030 C.ar      1 <0>        -0.1500
     22 C16        14.5316    6.4350   15.7430 C.ar      1 <0>         0.0000
     23 C17        16.3845    0.7643   15.8383 C.3       1 <0>        -0.1600
     24 C18        17.4901   -0.2024   15.4086 C.3       1 <0>        -0.0100
     25 H2         18.5896   -2.7930   16.9712 H         1 <0>         0.0800
     26 H3         18.1706   -2.5718   15.2555 H         1 <0>         0.1100
     27 H4         19.7400   -3.2815   15.7040 H         1 <0>         0.0800
     28 H5         20.5996    0.1822   14.6447 H         1 <0>         0.0800
     29 H6         20.9139   -1.5440   14.3453 H         1 <0>         0.1100
     30 H7         19.3442   -0.8344   13.8969 H         1 <0>         0.0800
     31 H8         21.1877   -0.1283   17.0529 H         1 <0>         0.0800
     32 H9         20.3515   -1.3661   18.0209 H         1 <0>         0.1000
     33 H10        21.5022   -1.8545   16.7536 H         1 <0>         0.0800
     34 H11        19.5273    1.4364   15.4180 H         1 <0>         0.1300
     35 H12        20.0293    1.1734   17.1051 H         1 <0>         0.1400
     36 H13        18.5903    3.1841   16.9059 H         1 <0>         0.1200
     37 H14        17.7984    1.9264   17.8861 H         1 <0>         0.0900
     38 H15        17.2908    2.4981   14.9294 H         1 <0>         0.1100
     39 H16        15.2304    2.7802   17.0002 H         1 <0>         0.4100
     40 H17        14.5373    4.2244   18.3201 H         1 <0>         0.1300
     41 H18        12.8072    5.7600   19.1288 H         1 <0>         0.1400
     42 H19        11.4362    8.0931   18.4658 H         1 <0>         0.4200
     43 H20        12.4641    8.3499   14.6890 H         1 <0>         0.1300
     44 H21        13.7160    9.3244   15.5197 H         1 <0>         0.1300
     45 H22        15.0134    6.6240   14.7951 H         1 <0>         0.1500
     46 H23        16.0036    0.4701   16.8163 H         1 <0>         0.0900
     47 H24        15.5748    0.7388   15.1090 H         1 <0>         0.1200
     48 H25        17.8701    0.0926   14.4305 H         1 <0>         0.1300
     49 H26        17.0857   -1.2129   15.3512 H         1 <0>         0.1400
@<TRIPOS>BOND
     1    1    2 1
     2    1   25 1
     3    1   26 1
     4    1   27 1
     5    2    3 1
     6    2    4 1
     7    2    5 1
     8    3   28 1
     9    3   29 1
    10    3   30 1
    11    4   31 1
    12    4   32 1
    13    4   33 1
    14    5    6 1
    15    5   24 1
    16    5    7 1
    17    7    8 1
    18    7   34 1
    19    7   35 1
    20    8    9 1
    21    8   36 1
    22    8   37 1
    23    9   10 1
    24    9   23 1
    25    9   38 1
    26   10   11 am
    27   10   39 1
    28   11   12 2
    29   11   13 1
    30   13   22 ar
    31   13   14 ar
    32   14   15 ar
    33   14   40 1
    34   15   16 ar
    35   15   41 1
    36   16   21 ar
    37   16   17 1
    38   17   18 am
    39   17   42 1
    40   18   19 2
    41   18   20 1
    42   20   21 1
    43   20   43 1
    44   20   44 1
    45   21   22 ar
    46   22   45 1
    47   23   24 1
    48   23   46 1
    49   23   47 1
    50   24   48 1
    51   24   49 1
##########                 Name:            smyd3_307
##########          Protonation:                 none
##########               SMILES:   CCC(C)[NH+]1CCC(NC(=O)C2=CC=C3NC(=O)CC3=C2)CC1
##########            Long Name:   NO_LONG_NAME
##########          FlexRecCode: 1
##########               Number:                  790
##########   Ligand Source File: /proj/zinc22/users/x_andlu/OGG1/revisions/docking/targets/smyd3/db2gen/split_par
##########                 Rank:                    1
##########               Setnum:                   35
##########             Matchnum:                   19
##########                Cloud:                    1
##########        Electrostatic:           -28.632256
##########                 Gist:             0.000000
##########        Van der Waals:           -28.583912
##########  Ligand Polar Desolv:             8.360178
########## Ligand Apolar Desolv:            -2.310993
##########      Internal Energy:             0.000000
##########      Receptor Energy:             0.000000
########## Receptor Desolvation:             0.000000
########## Receptor Hydrophobic:             0.000000
##########         Total Energy:           -51.166981
##########        Ligand Charge:             1.000000
##########            Arbitrary:    +999.9990
##########        Ligand Energy:             0.000000

@<TRIPOS>MOLECULE
smyd3_307      none
   49    51     0     0     0
SMALL
USER_CHARGES

@<TRIPOS>ATOM
      1 C1         19.2837   -2.4197   16.5298 C.3       1 <0>        -0.1600
      2 C2         19.7864   -1.9148   15.1757 C.3       1 <0>        -0.1500
      3 C3         20.4280   -0.5369   15.3515 C.3       1 <0>         0.0200
      4 C4         21.6035   -0.6422   16.3249 C.3       1 <0>        -0.1900
      5 N1         19.4325    0.4022   15.8855 N.4       1 <0>        -0.3800
      6 H1         19.1016    0.0683   16.7783 H         1 <0>         0.4200
      7 C5         20.0502    1.7226   16.0569 C.3       1 <0>        -0.0100
      8 C6         19.0411    2.6839   16.6885 C.3       1 <0>        -0.1600
      9 C7         17.8187    2.8053   15.7740 C.3       1 <0>         0.1400
     10 N2         16.8160    3.6646   16.4083 N.am      1 <0>        -0.7300
     11 C8         15.9801    4.3993   15.6480 C.2       1 <0>         0.5700
     12 O1         16.0582    4.3488   14.4357 O.2       1 <0>        -0.5300
     13 C9         14.9699    5.2651   16.2870 C.ar      1 <0>        -0.1700
     14 C10        14.4747    4.9511   17.5554 C.ar      1 <0>        -0.0500
     15 C11        13.5330    5.7574   18.1502 C.ar      1 <0>        -0.1500
     16 C12        13.0638    6.8965   17.4928 C.ar      1 <0>         0.1900
     17 N3         12.1292    7.8488   17.8859 N.am      1 <0>        -0.6600
     18 C13        11.9517    8.8044   16.9587 C.2       1 <0>         0.5300
     19 O2         11.2000    9.7530   17.0369 O.2       1 <0>        -0.4800
     20 C14        12.8651    8.4745   15.7972 C.3       1 <0>        -0.1200
     21 C15        13.5645    7.2051   16.2272 C.ar      1 <0>        -0.1500
     22 C16        14.5009    6.4060   15.6271 C.ar      1 <0>         0.0000
     23 C17        17.2265    1.4123   15.5422 C.3       1 <0>        -0.1600
     24 C18        18.3028    0.4979   14.9531 C.3       1 <0>        -0.0100
     25 H2         18.8267   -3.4012   16.4046 H         1 <0>         0.0700
     26 H3         20.1213   -2.4946   17.2234 H         1 <0>         0.0800
     27 H4         18.5452   -1.7228   16.9260 H         1 <0>         0.0700
     28 H5         18.9488   -1.8398   14.4822 H         1 <0>         0.0900
     29 H6         20.5249   -2.6116   14.7795 H         1 <0>         0.0900
     30 H7         20.7860   -0.1772   14.3869 H         1 <0>         0.1400
     31 H8         22.0607    0.3395   16.4502 H         1 <0>         0.1100
     32 H9         21.2455   -1.0018   17.2896 H         1 <0>         0.0800
     33 H10        22.3421   -1.3391   15.9288 H         1 <0>         0.0800
     34 H11        20.3591    2.1077   15.0851 H         1 <0>         0.1300
     35 H12        20.9219    1.6341   16.7053 H         1 <0>         0.1400
     36 H13        19.5011    3.6642   16.8132 H         1 <0>         0.1200
     37 H14        18.7318    2.3006   17.6609 H         1 <0>         0.0900
     38 H15        18.1189    3.2385   14.8199 H         1 <0>         0.1100
     39 H16        16.7535    3.7048   17.3755 H         1 <0>         0.4100
     40 H17        14.8328    4.0717   18.0702 H         1 <0>         0.1300
     41 H18        13.1541    5.5083   19.1303 H         1 <0>         0.1400
     42 H19        11.6589    7.8255   18.7340 H         1 <0>         0.4200
     43 H20        12.2842    8.3025   14.8910 H         1 <0>         0.1300
     44 H21        13.5881    9.2749   15.6404 H         1 <0>         0.1300
     45 H22        14.8770    6.6574   14.6463 H         1 <0>         0.1500
     46 H23        16.8796    1.0018   16.4906 H         1 <0>         0.0900
     47 H24        16.3894    1.4835   14.8477 H         1 <0>         0.1200
     48 H25        18.6490    0.9093   14.0048 H         1 <0>         0.1300
     49 H26        17.8843   -0.4946   14.7870 H         1 <0>         0.1400
@<TRIPOS>BOND
     1    1    2 1
     2    1   25 1
     3    1   26 1
     4    1   27 1
     5    2    3 1
     6    2   28 1
     7    2   29 1
     8    3    4 1
     9    3    5 1
    10    3   30 1
    11    4   31 1
    12    4   32 1
    13    4   33 1
    14    5    6 1
    15    5   24 1
    16    5    7 1
    17    7    8 1
    18    7   34 1
    19    7   35 1
    20    8    9 1
    21    8   36 1
    22    8   37 1
    23    9   10 1
    24    9   23 1
    25    9   38 1
    26   10   11 am
    27   10   39 1
    28   11   12 2
    29   11   13 1
    30   13   22 ar
    31   13   14 ar
    32   14   15 ar
    33   14   40 1
    34   15   16 ar
    35   15   41 1
    36   16   21 ar
    37   16   17 1
    38   17   18 am
    39   17   42 1
    40   18   19 2
    41   18   20 1
    42   20   21 1
    43   20   43 1
    44   20   44 1
    45   21   22 ar
    46   22   45 1
    47   23   24 1
    48   23   46 1
    49   23   47 1
    50   24   48 1
    51   24   49 1
##########                 Name:            smyd3_309
##########          Protonation:                 none
##########               SMILES:   O=C1CC2=C(C=CC(C(=O)NC3CC[NH+](C4CCC4)CC3)=C2)N1
##########            Long Name:   NO_LONG_NAME
##########          FlexRecCode: 1
##########               Number:                  794
##########   Ligand Source File: /proj/zinc22/users/x_andlu/OGG1/revisions/docking/targets/smyd3/db2gen/split_par
##########                 Rank:                    1
##########               Setnum:                    6
##########             Matchnum:                    7
##########                Cloud:                    1
##########        Electrostatic:           -27.402830
##########                 Gist:             0.000000
##########        Van der Waals:           -31.073959
##########  Ligand Polar Desolv:             8.251444
########## Ligand Apolar Desolv:            -2.378086
##########      Internal Energy:             0.000000
##########      Receptor Energy:             0.000000
########## Receptor Desolvation:             0.000000
########## Receptor Hydrophobic:             0.000000
##########         Total Energy:           -52.603436
##########        Ligand Charge:             1.000000
##########            Arbitrary:    +999.9990
##########        Ligand Energy:             0.000000

@<TRIPOS>MOLECULE
smyd3_309      none
   47    50     0     0     0
SMALL
USER_CHARGES

@<TRIPOS>ATOM
      1 O1         11.3776    9.7065   16.9939 O.2       1 <0>        -0.4800
      2 C1         12.1074    8.7414   16.9108 C.2       1 <0>         0.5300
      3 C2         13.0763    8.4410   15.7869 C.3       1 <0>        -0.1200
      4 C3         13.7168    7.1330   16.1922 C.ar      1 <0>        -0.1500
      5 C4         13.1374    6.7790   17.4109 C.ar      1 <0>         0.1900
      6 C5         13.5383    5.5962   18.0362 C.ar      1 <0>        -0.1500
      7 C6         14.4903    4.7921   17.4555 C.ar      1 <0>        -0.0500
      8 C7         15.0650    5.1524   16.2334 C.ar      1 <0>        -0.1700
      9 C8         16.0868    4.2892   15.6094 C.2       1 <0>         0.5700
     10 O2         16.2322    4.2945   14.4023 O.2       1 <0>        -0.5300
     11 N1         16.8586    3.4951   16.3777 N.am      1 <0>        -0.7300
     12 C9         17.8728    2.6383   15.7584 C.3       1 <0>         0.1400
     13 C10        17.2583    1.2757   15.4258 C.3       1 <0>        -0.1600
     14 C11        18.3419    0.3596   14.8529 C.3       1 <0>        -0.0000
     15 N2         19.4139    0.1867   15.8404 N.4       1 <0>        -0.3800
     16 H1         19.0254   -0.1801   16.6963 H         1 <0>         0.4200
     17 C12        20.4131   -0.7542   15.3167 C.3       1 <0>        -0.0100
     18 C13        19.8572   -2.1660   15.0651 C.3       1 <0>        -0.1500
     19 C14        21.1841   -2.7031   15.6267 C.3       1 <0>        -0.1400
     20 C15        21.2983   -1.3823   16.4060 C.3       1 <0>        -0.1500
     21 C16        20.0555    1.4790   16.1106 C.3       1 <0>        -0.0000
     22 C17        19.0378    2.4380   16.7319 C.3       1 <0>        -0.1600
     23 C18        14.6648    6.3364   15.6059 C.ar      1 <0>         0.0000
     24 N3         12.2071    7.7379   17.7982 N.am      1 <0>        -0.6600
     25 H2         12.5435    8.3293   14.8426 H         1 <0>         0.1300
     26 H3         13.8277    9.2268   15.7099 H         1 <0>         0.1300
     27 H4         13.0981    5.3115   18.9805 H         1 <0>         0.1400
     28 H5         14.7948    3.8789   17.9450 H         1 <0>         0.1300
     29 H6         16.7426    3.4909   17.3408 H         1 <0>         0.4100
     30 H7         18.2379    3.1076   14.8449 H         1 <0>         0.1100
     31 H8         16.8474    0.8307   16.3320 H         1 <0>         0.0900
     32 H9         16.4641    1.4043   14.6903 H         1 <0>         0.1200
     33 H10        18.7518    0.8055   13.9465 H         1 <0>         0.1300
     34 H11        17.9077   -0.6113   14.6147 H         1 <0>         0.1300
     35 H12        20.9764   -0.3491   14.4761 H         1 <0>         0.1600
     36 H13        18.9915   -2.4104   15.6806 H         1 <0>         0.1000
     37 H14        19.7056   -2.3938   14.0100 H         1 <0>         0.1000
     38 H15        21.9582   -2.8321   14.8702 H         1 <0>         0.1000
     39 H16        21.0654   -3.5782   16.2657 H         1 <0>         0.1000
     40 H17        22.3100   -0.9776   16.4335 H         1 <0>         0.1000
     41 H18        20.8271   -1.4113   17.3885 H         1 <0>         0.1000
     42 H19        20.4289    1.9009   15.1775 H         1 <0>         0.1300
     43 H20        20.8864    1.3343   16.8010 H         1 <0>         0.1400
     44 H21        19.5156    3.3975   16.9301 H         1 <0>         0.1200
     45 H22        18.6639    2.0172   17.6653 H         1 <0>         0.0900
     46 H23        15.1028    6.6238   14.6615 H         1 <0>         0.1500
     47 H24        11.6891    7.6875   18.6168 H         1 <0>         0.4200
@<TRIPOS>BOND
     1    1    2 2
     2    2   24 am
     3    2    3 1
     4    3    4 1
     5    3   25 1
     6    3   26 1
     7    4   23 ar
     8    4    5 ar
     9    5    6 ar
    10    5   24 1
    11    6    7 ar
    12    6   27 1
    13    7    8 ar
    14    7   28 1
    15    8    9 1
    16    8   23 ar
    17    9   10 2
    18    9   11 am
    19   11   12 1
    20   11   29 1
    21   12   22 1
    22   12   13 1
    23   12   30 1
    24   13   14 1
    25   13   31 1
    26   13   32 1
    27   14   15 1
    28   14   33 1
    29   14   34 1
    30   15   16 1
    31   15   17 1
    32   15   21 1
    33   17   20 1
    34   17   18 1
    35   17   35 1
    36   18   19 1
    37   18   36 1
    38   18   37 1
    39   19   20 1
    40   19   38 1
    41   19   39 1
    42   20   40 1
    43   20   41 1
    44   21   22 1
    45   21   42 1
    46   21   43 1
    47   22   44 1
    48   22   45 1
    49   23   46 1
    50   24   47 1
##########                 Name:            smyd3_310
##########          Protonation:                 none
##########               SMILES:   O=C1CC2=C(C=CC(C(=O)NC3CC[NH+](C4COC4)CC3)=C2)N1
##########            Long Name:   NO_LONG_NAME
##########          FlexRecCode: 1
##########               Number:                  797
##########   Ligand Source File: /proj/zinc22/users/x_andlu/OGG1/revisions/docking/targets/smyd3/db2gen/split_par
##########                 Rank:                    1
##########               Setnum:                    6
##########             Matchnum:                    6
##########                Cloud:                    1
##########        Electrostatic:           -27.795340
##########                 Gist:             0.000000
##########        Van der Waals:           -31.378738
##########  Ligand Polar Desolv:             9.692061
########## Ligand Apolar Desolv:            -1.543154
##########      Internal Energy:             0.000000
##########      Receptor Energy:             0.000000
########## Receptor Desolvation:             0.000000
########## Receptor Hydrophobic:             0.000000
##########         Total Energy:           -51.025173
##########        Ligand Charge:             1.000000
##########            Arbitrary:    +999.9990
##########        Ligand Energy:             0.000000

@<TRIPOS>MOLECULE
smyd3_310      none
   45    48     0     0     0
SMALL
USER_CHARGES

@<TRIPOS>ATOM
      1 O1         11.3746    9.7515   17.0092 O.2       1 <0>        -0.4800
      2 C1         12.1008    8.7834   16.9291 C.2       1 <0>         0.5300
      3 C2         13.0675    8.4752   15.8055 C.3       1 <0>        -0.1200
      4 C3         13.7043    7.1669   16.2155 C.ar      1 <0>        -0.1500
      5 C4         13.1251    6.8199   17.4364 C.ar      1 <0>         0.1900
      6 C5         13.5232    5.6385   18.0663 C.ar      1 <0>        -0.1500
      7 C6         14.4723    4.8293   17.4881 C.ar      1 <0>        -0.0500
      8 C7         15.0468    5.1825   16.2639 C.ar      1 <0>        -0.1800
      9 C8         16.0654    4.3136   15.6427 C.2       1 <0>         0.5700
     10 O2         16.2096    4.3132   14.4354 O.2       1 <0>        -0.5300
     11 N1         16.8358    3.5207   16.4135 N.am      1 <0>        -0.7300
     12 C9         17.8468    2.6583   15.7969 C.3       1 <0>         0.1400
     13 C10        17.2274    1.2966   15.4692 C.3       1 <0>        -0.1600
     14 C11        18.3082    0.3744   14.9007 C.3       1 <0>        -0.0000
     15 N2         19.3808    0.2026   15.8880 N.4       1 <0>        -0.3800
     16 H1         18.9911   -0.1588   16.7456 H         1 <0>         0.4200
     17 C12        20.3765   -0.7436   15.3673 C.3       1 <0>        -0.0600
     18 C13        19.8285   -2.1667   15.1504 C.3       1 <0>         0.0400
     19 O3         21.0642   -2.6114   15.7454 O.3       1 <0>        -0.3400
     20 C14        21.2653   -1.3734   16.4565 C.3       1 <0>         0.0400
     21 C15        20.0264    1.4942   16.1519 C.3       1 <0>        -0.0000
     22 C16        19.0123    2.4587   16.7700 C.3       1 <0>        -0.1600
     23 C17        14.6493    6.3650   15.6317 C.ar      1 <0>         0.0000
     24 N3         12.1984    7.7833   17.8206 N.am      1 <0>        -0.6600
     25 H2         12.5333    8.3612   14.8622 H         1 <0>         0.1300
     26 H3         13.8214    9.2584   15.7244 H         1 <0>         0.1300
     27 H4         13.0832    5.3593   19.0123 H         1 <0>         0.1400
     28 H5         14.7745    3.9173   17.9813 H         1 <0>         0.1300
     29 H6         16.7207    3.5211   17.3767 H         1 <0>         0.4100
     30 H7         18.2122    3.1225   14.8809 H         1 <0>         0.1100
     31 H8         16.8152    0.8562   16.3769 H         1 <0>         0.0900
     32 H9         16.4336    1.4255   14.7334 H         1 <0>         0.1200
     33 H10        18.7185    0.8151   13.9921 H         1 <0>         0.1300
     34 H11        17.8706   -0.5963   14.6677 H         1 <0>         0.1300
     35 H12        20.9340   -0.3504   14.5173 H         1 <0>         0.1700
     36 H13        18.9448   -2.3945   15.7465 H         1 <0>         0.1000
     37 H14        19.7199   -2.4423   14.1014 H         1 <0>         0.1300
     38 H15        22.2962   -1.0198   16.4434 H         1 <0>         0.1300
     39 H16        20.8203   -1.3590   17.4514 H         1 <0>         0.1000
     40 H17        20.4001    1.9109   15.2165 H         1 <0>         0.1400
     41 H18        20.8574    1.3495   16.8423 H         1 <0>         0.1400
     42 H19        19.4931    3.4176   16.9637 H         1 <0>         0.1200
     43 H20        18.6380    2.0439   17.7060 H         1 <0>         0.1000
     44 H21        15.0869    6.6468   14.6854 H         1 <0>         0.1500
     45 H22        11.6810    7.7382   18.6399 H         1 <0>         0.4200
@<TRIPOS>BOND
     1    1    2 2
     2    2   24 am
     3    2    3 1
     4    3    4 1
     5    3   25 1
     6    3   26 1
     7    4   23 ar
     8    4    5 ar
     9    5    6 ar
    10    5   24 1
    11    6    7 ar
    12    6   27 1
    13    7    8 ar
    14    7   28 1
    15    8    9 1
    16    8   23 ar
    17    9   10 2
    18    9   11 am
    19   11   12 1
    20   11   29 1
    21   12   22 1
    22   12   13 1
    23   12   30 1
    24   13   14 1
    25   13   31 1
    26   13   32 1
    27   14   15 1
    28   14   33 1
    29   14   34 1
    30   15   16 1
    31   15   17 1
    32   15   21 1
    33   17   20 1
    34   17   18 1
    35   17   35 1
    36   18   19 1
    37   18   36 1
    38   18   37 1
    39   19   20 1
    40   20   38 1
    41   20   39 1
    42   21   22 1
    43   21   40 1
    44   21   41 1
    45   22   42 1
    46   22   43 1
    47   23   44 1
    48   24   45 1
##########                 Name:            smyd3_313
##########          Protonation:                 none
##########               SMILES:   C=C(C)C[NH+]1CCC(NC(=O)C2=CC=C3NC(=O)CC3=C2)CC1
##########            Long Name:   NO_LONG_NAME
##########          FlexRecCode: 1
##########               Number:                  809
##########   Ligand Source File: /proj/zinc22/users/x_andlu/OGG1/revisions/docking/targets/smyd3/db2gen/split_par
##########                 Rank:                    1
##########               Setnum:                   11
##########             Matchnum:                    8
##########                Cloud:                    1
##########        Electrostatic:           -27.144075
##########                 Gist:             0.000000
##########        Van der Waals:           -32.228851
##########  Ligand Polar Desolv:             8.195833
########## Ligand Apolar Desolv:            -2.369513
##########      Internal Energy:             0.000000
##########      Receptor Energy:             0.000000
########## Receptor Desolvation:             0.000000
########## Receptor Hydrophobic:             0.000000
##########         Total Energy:           -53.546608
##########        Ligand Charge:             1.000000
##########            Arbitrary:    +999.9990
##########        Ligand Energy:             0.000000

@<TRIPOS>MOLECULE
smyd3_313      none
   47    49     0     0     0
SMALL
USER_CHARGES

@<TRIPOS>ATOM
      1 C1         21.9880   -1.3646   16.4552 C.2       1 <0>        -0.1200
      2 C2         20.6845   -1.4881   16.4984 C.2       1 <0>        -0.1900
      3 C3         20.0315   -2.1779   17.6682 C.3       1 <0>        -0.1300
      4 C4         19.8383   -0.9404   15.3782 C.3       1 <0>         0.0300
      5 N1         18.9117    0.0669   15.9118 N.4       1 <0>        -0.3800
      6 H1         18.5561   -0.2449   16.8031 H         1 <0>         0.4200
      7 C5         19.6226    1.3388   16.0882 C.3       1 <0>        -0.0000
      8 C6         18.6837    2.3692   16.7193 C.3       1 <0>        -0.1600
      9 C7         17.4760    2.5805   15.8019 C.3       1 <0>         0.1400
     10 N2         16.5360    3.5086   16.4355 N.am      1 <0>        -0.7300
     11 C8         15.7575    4.3034   15.6747 C.2       1 <0>         0.5700
     12 O1         15.8354    4.2502   14.4626 O.2       1 <0>        -0.5300
     13 C9         14.8105    5.2383   16.3131 C.ar      1 <0>        -0.1700
     14 C10        14.2902    4.9576   17.5792 C.ar      1 <0>        -0.0500
     15 C11        13.4072    5.8286   18.1734 C.ar      1 <0>        -0.1500
     16 C12        13.0234    7.0000   17.5177 C.ar      1 <0>         0.1900
     17 N3         12.1588    8.0163   17.9106 N.am      1 <0>        -0.6600
     18 C13        12.0534    8.9844   16.9853 C.2       1 <0>         0.5300
     19 O2         11.3720    9.9845   17.0638 O.2       1 <0>        -0.4800
     20 C14        12.9440    8.5922   15.8256 C.3       1 <0>        -0.1200
     21 C15        13.5488    7.2747   16.2544 C.ar      1 <0>        -0.1500
     22 C16        14.4270    6.4116   15.6547 C.ar      1 <0>         0.0000
     23 C17        16.7854    1.2344   15.5650 C.3       1 <0>        -0.1600
     24 C18        17.7947    0.2461   14.9766 C.3       1 <0>        -0.0100
     25 H2         22.5946   -1.7571   17.2580 H         1 <0>         0.1200
     26 H3         22.4560   -0.8701   15.6168 H         1 <0>         0.1100
     27 H4         18.9503   -2.1846   17.5289 H         1 <0>         0.0700
     28 H5         20.3954   -3.2031   17.7351 H         1 <0>         0.0800
     29 H6         20.2759   -1.6449   18.5871 H         1 <0>         0.0800
     30 H7         19.2702   -1.7512   14.9221 H         1 <0>         0.1300
     31 H8         20.4818   -0.4808   14.6279 H         1 <0>         0.1400
     32 H9         19.9613    1.7028   15.1181 H         1 <0>         0.1300
     33 H10        20.4836    1.1857   16.7390 H         1 <0>         0.1400
     34 H11        19.2130    3.3133   16.8478 H         1 <0>         0.1200
     35 H12        18.3446    2.0069   17.6899 H         1 <0>         0.0900
     36 H13        17.8094    2.9931   14.8496 H         1 <0>         0.1100
     37 H14        16.4739    3.5510   17.4025 H         1 <0>         0.4100
     38 H15        14.5823    4.0536   18.0928 H         1 <0>         0.1300
     39 H16        13.0084    5.6050   19.1519 H         1 <0>         0.1400
     40 H17        11.6855    8.0249   18.7572 H         1 <0>         0.4200
     41 H18        12.3549    8.4648   14.9173 H         1 <0>         0.1300
     42 H19        13.7234    9.3388   15.6727 H         1 <0>         0.1300
     43 H20        14.8231    6.6375   14.6757 H         1 <0>         0.1500
     44 H21        16.4070    0.8479   16.5113 H         1 <0>         0.0900
     45 H22        15.9577    1.3675   14.8684 H         1 <0>         0.1200
     46 H23        18.1723    0.6334   14.0302 H         1 <0>         0.1300
     47 H24        17.3059   -0.7131   14.8069 H         1 <0>         0.1400
@<TRIPOS>BOND
     1    1    2 2
     2    1   25 1
     3    1   26 1
     4    2    3 1
     5    2    4 1
     6    3   27 1
     7    3   28 1
     8    3   29 1
     9    4    5 1
    10    4   30 1
    11    4   31 1
    12    5    6 1
    13    5   24 1
    14    5    7 1
    15    7    8 1
    16    7   32 1
    17    7   33 1
    18    8    9 1
    19    8   34 1
    20    8   35 1
    21    9   10 1
    22    9   23 1
    23    9   36 1
    24   10   11 am
    25   10   37 1
    26   11   12 2
    27   11   13 1
    28   13   22 ar
    29   13   14 ar
    30   14   15 ar
    31   14   38 1
    32   15   16 ar
    33   15   39 1
    34   16   21 ar
    35   16   17 1
    36   17   18 am
    37   17   40 1
    38   18   19 2
    39   18   20 1
    40   20   21 1
    41   20   41 1
    42   20   42 1
    43   21   22 ar
    44   22   43 1
    45   23   24 1
    46   23   44 1
    47   23   45 1
    48   24   46 1
    49   24   47 1
##########                 Name:            smyd3_314
##########          Protonation:                 none
##########               SMILES:   NC(=O)C[NH+]1CCC(NC(=O)C2=CC3=C(C=C2)NC(=O)C3)CC1
##########            Long Name:   NO_LONG_NAME
##########          FlexRecCode: 1
##########               Number:                  811
##########   Ligand Source File: /proj/zinc22/users/x_andlu/OGG1/revisions/docking/targets/smyd3/db2gen/split_par
##########                 Rank:                    1
##########               Setnum:                    9
##########             Matchnum:                   15
##########                Cloud:                    1
##########        Electrostatic:           -31.898273
##########                 Gist:             0.000000
##########        Van der Waals:           -30.265158
##########  Ligand Polar Desolv:             7.538789
########## Ligand Apolar Desolv:            -1.013390
##########      Internal Energy:             0.000000
##########      Receptor Energy:             0.000000
########## Receptor Desolvation:             0.000000
########## Receptor Hydrophobic:             0.000000
##########         Total Energy:           -55.638031
##########        Ligand Charge:             1.000000
##########            Arbitrary:    +999.9990
##########        Ligand Energy:             0.000000

@<TRIPOS>MOLECULE
smyd3_314      none
   44    46     0     0     0
SMALL
USER_CHARGES

@<TRIPOS>ATOM
      1 N1         22.1422   -1.6409   16.3517 N.am      1 <0>        -0.8200
      2 C1         20.8745   -1.2445   16.5815 C.2       1 <0>         0.5100
      3 O1         20.4124   -1.3090   17.7009 O.2       1 <0>        -0.5300
      4 C2         20.0316   -0.7209   15.4474 C.3       1 <0>        -0.0300
      5 N2         19.0668    0.2581   15.9657 N.4       1 <0>        -0.3700
      6 H1         18.7055   -0.0649   16.8507 H         1 <0>         0.4300
      7 C3         19.7371    1.5502   16.1549 C.3       1 <0>        -0.0100
      8 C4         18.7578    2.5518   16.7708 C.3       1 <0>        -0.1500
      9 C5         17.5600    2.7287   15.8331 C.3       1 <0>         0.1400
     10 N3         16.5825    3.6280   16.4512 N.am      1 <0>        -0.7300
     11 C6         15.7941    4.4004   15.6778 C.2       1 <0>         0.5700
     12 O2         15.8939    4.3509   14.4671 O.2       1 <0>        -0.5300
     13 C7         14.8096    5.3066   16.3006 C.ar      1 <0>        -0.1700
     14 C8         14.4034    6.4688   15.6368 C.ar      1 <0>         0.0000
     15 C9         13.4900    7.3055   16.2221 C.ar      1 <0>        -0.1500
     16 C10        12.9518    7.0144   17.4758 C.ar      1 <0>         0.1900
     17 C11        13.3585    5.8534   18.1373 C.ar      1 <0>        -0.1500
     18 C12        14.2758    5.0094   17.5577 C.ar      1 <0>        -0.0500
     19 N4         12.0512    8.0043   17.8547 N.am      1 <0>        -0.6600
     20 C13        11.9328    8.9699   16.9282 C.2       1 <0>         0.5300
     21 O3         11.2211    9.9494   16.9957 O.2       1 <0>        -0.4800
     22 C14        12.8542    8.6049   15.7836 C.3       1 <0>        -0.1200
     23 C15        16.9134    1.3631   15.5837 C.3       1 <0>        -0.1600
     24 C16        17.9611    0.4056   15.0119 C.3       1 <0>        -0.0000
     25 H2         22.6847   -1.9778   17.0817 H         1 <0>         0.4100
     26 H3         22.5117   -1.5893   15.4564 H         1 <0>         0.4200
     27 H4         19.4954   -1.5477   14.9815 H         1 <0>         0.1600
     28 H5         20.6737   -0.2420   14.7083 H         1 <0>         0.1600
     29 H6         20.0813    1.9251   15.1910 H         1 <0>         0.1300
     30 H7         20.5912    1.4221   16.8199 H         1 <0>         0.1500
     31 H8         19.2568    3.5110   16.9087 H         1 <0>         0.1200
     32 H9         18.4130    2.1787   17.7352 H         1 <0>         0.1000
     33 H10        17.8972    3.1518   14.8869 H         1 <0>         0.1100
     34 H11        16.5028    3.6675   17.4171 H         1 <0>         0.4100
     35 H12        14.8097    6.7076   14.6651 H         1 <0>         0.1500
     36 H13        12.9500    5.6173   19.1089 H         1 <0>         0.1400
     37 H14        14.5850    4.1133   18.0754 H         1 <0>         0.1300
     38 H15        11.5635    7.9982   18.6932 H         1 <0>         0.4200
     39 H16        12.2846    8.4610   14.8655 H         1 <0>         0.1300
     40 H17        13.6138    9.3742   15.6443 H         1 <0>         0.1300
     41 H18        16.5305    0.9646   16.5232 H         1 <0>         0.0900
     42 H19        16.0940    1.4726   14.8732 H         1 <0>         0.1200
     43 H20        18.3431    0.8048   14.0723 H         1 <0>         0.1400
     44 H21        17.5036   -0.5675   14.8333 H         1 <0>         0.1400
@<TRIPOS>BOND
     1    1    2 am
     2    1   25 1
     3    1   26 1
     4    2    3 2
     5    2    4 1
     6    4    5 1
     7    4   27 1
     8    4   28 1
     9    5    6 1
    10    5   24 1
    11    5    7 1
    12    7    8 1
    13    7   29 1
    14    7   30 1
    15    8    9 1
    16    8   31 1
    17    8   32 1
    18    9   10 1
    19    9   23 1
    20    9   33 1
    21   10   11 am
    22   10   34 1
    23   11   12 2
    24   11   13 1
    25   13   18 ar
    26   13   14 ar
    27   14   15 ar
    28   14   35 1
    29   15   22 1
    30   15   16 ar
    31   16   17 ar
    32   16   19 1
    33   17   18 ar
    34   17   36 1
    35   18   37 1
    36   19   20 am
    37   19   38 1
    38   20   21 2
    39   20   22 1
    40   22   39 1
    41   22   40 1
    42   23   24 1
    43   23   41 1
    44   23   42 1
    45   24   43 1
    46   24   44 1
##########                 Name:            smyd3_315
##########          Protonation:                 none
##########               SMILES:   CC(C)C[NH+]1CCC(NC(=O)C2=CC=C3NC(=O)CC3=C2)CC1
##########            Long Name:   NO_LONG_NAME
##########          FlexRecCode: 1
##########               Number:                  816
##########   Ligand Source File: /proj/zinc22/users/x_andlu/OGG1/revisions/docking/targets/smyd3/db2gen/split_par
##########                 Rank:                    1
##########               Setnum:                    7
##########             Matchnum:                   12
##########                Cloud:                    1
##########        Electrostatic:           -20.733891
##########                 Gist:             0.000000
##########        Van der Waals:           -32.601723
##########  Ligand Polar Desolv:             6.679328
########## Ligand Apolar Desolv:            -2.330048
##########      Internal Energy:             0.000000
##########      Receptor Energy:             0.000000
########## Receptor Desolvation:             0.000000
########## Receptor Hydrophobic:             0.000000
##########         Total Energy:           -48.986332
##########        Ligand Charge:             1.000000
##########            Arbitrary:    +999.9990
##########        Ligand Energy:             0.000000

@<TRIPOS>MOLECULE
smyd3_315      none
   49    51     0     0     0
SMALL
USER_CHARGES

@<TRIPOS>ATOM
      1 C1         20.2349   -1.8901   17.6396 C.3       1 <0>        -0.1500
      2 C2         21.0907   -1.1669   16.5978 C.3       1 <0>        -0.1200
      3 C3         22.2104   -2.0956   16.1238 C.3       1 <0>        -0.1700
      4 C4         20.2169   -0.7717   15.4056 C.3       1 <0>        -0.0100
      5 N1         19.1419    0.1200   15.8607 N.4       1 <0>        -0.3900
      6 H1         18.7906   -0.2045   16.7491 H         1 <0>         0.4200
      7 C5         19.6688    1.4816   16.0122 C.3       1 <0>        -0.0000
      8 C6         18.5741    2.3977   16.5633 C.3       1 <0>        -0.1600
      9 C7         17.3907    2.4119   15.5913 C.3       1 <0>         0.1400
     10 N2         16.3085    3.2269   16.1489 N.am      1 <0>        -0.7300
     11 C8         16.2505    4.5460   15.8791 C.2       1 <0>         0.5700
     12 O1         17.0964    5.0598   15.1729 O.2       1 <0>        -0.5300
     13 C9         15.1601    5.3670   16.4408 C.ar      1 <0>        -0.1700
     14 C10        14.5411    4.9921   17.6361 C.ar      1 <0>        -0.0500
     15 C11        13.5247    5.7567   18.1589 C.ar      1 <0>        -0.1500
     16 C12        13.1028    6.9138   17.5008 C.ar      1 <0>         0.1900
     17 N3         12.1117    7.8325   17.8296 N.am      1 <0>        -0.6600
     18 C13        12.0121    8.8226   16.9271 C.2       1 <0>         0.5300
     19 O2         11.2361    9.7540   16.9624 O.2       1 <0>        -0.4800
     20 C14        13.0496    8.5569   15.8570 C.3       1 <0>        -0.1200
     21 C15        13.7271    7.2831   16.3086 C.ar      1 <0>        -0.1500
     22 C16        14.7387    6.5259   15.7802 C.ar      1 <0>         0.0000
     23 C17        16.8966    0.9776   15.3832 C.3       1 <0>        -0.1600
     24 C18        18.0534    0.1140   14.8757 C.3       1 <0>        -0.0100
     25 H2         19.4372   -1.2285   17.9773 H         1 <0>         0.0700
     26 H3         19.8005   -2.7854   17.1948 H         1 <0>         0.0700
     27 H4         20.8574   -2.1718   18.4890 H         1 <0>         0.0800
     28 H5         21.5250   -0.2715   17.0426 H         1 <0>         0.1000
     29 H6         22.8201   -1.5802   15.3816 H         1 <0>         0.0500
     30 H7         22.8329   -2.3771   16.9731 H         1 <0>         0.0800
     31 H8         21.7761   -2.9909   15.6791 H         1 <0>         0.0700
     32 H9         19.7826   -1.6670   14.9609 H         1 <0>         0.1300
     33 H10        20.8265   -0.2564   14.6634 H         1 <0>         0.1300
     34 H11        19.9987    1.8531   15.0421 H         1 <0>         0.1300
     35 H12        20.5127    1.4689   16.7021 H         1 <0>         0.1400
     36 H13        18.9668    3.4086   16.6735 H         1 <0>         0.1200
     37 H14        18.2436    2.0272   17.5337 H         1 <0>         0.0900
     38 H15        17.7082    2.8316   14.6368 H         1 <0>         0.1100
     39 H16        15.6337    2.8170   16.7125 H         1 <0>         0.4100
     40 H17        14.8618    4.0986   18.1510 H         1 <0>         0.1300
     41 H18        13.0502    5.4607   19.0827 H         1 <0>         0.1400
     42 H19        11.5553    7.7659   18.6214 H         1 <0>         0.4200
     43 H20        12.5712    8.4126   14.8883 H         1 <0>         0.1300
     44 H21        13.7677    9.3755   15.8093 H         1 <0>         0.1300
     45 H22        15.2103    6.8242   14.8556 H         1 <0>         0.1500
     46 H23        16.5313    0.5775   16.3290 H         1 <0>         0.0900
     47 H24        16.0903    0.9731   14.6497 H         1 <0>         0.1200
     48 H25        18.4178    0.5148   13.9299 H         1 <0>         0.1300
     49 H26        17.7046   -0.9078   14.7267 H         1 <0>         0.1400
@<TRIPOS>BOND
     1    1    2 1
     2    1   25 1
     3    1   26 1
     4    1   27 1
     5    2    3 1
     6    2    4 1
     7    2   28 1
     8    3   29 1
     9    3   30 1
    10    3   31 1
    11    4    5 1
    12    4   32 1
    13    4   33 1
    14    5    6 1
    15    5   24 1
    16    5    7 1
    17    7    8 1
    18    7   34 1
    19    7   35 1
    20    8    9 1
    21    8   36 1
    22    8   37 1
    23    9   10 1
    24    9   23 1
    25    9   38 1
    26   10   11 am
    27   10   39 1
    28   11   12 2
    29   11   13 1
    30   13   22 ar
    31   13   14 ar
    32   14   15 ar
    33   14   40 1
    34   15   16 ar
    35   15   41 1
    36   16   21 ar
    37   16   17 1
    38   17   18 am
    39   17   42 1
    40   18   19 2
    41   18   20 1
    42   20   21 1
    43   20   43 1
    44   20   44 1
    45   21   22 ar
    46   22   45 1
    47   23   24 1
    48   23   46 1
    49   23   47 1
    50   24   48 1
    51   24   49 1
##########                 Name:            smyd3_321
##########          Protonation:                 none
##########               SMILES:   CCCC[NH+]1CCC(NC(=O)C2=CC=C3NC(=O)CC3=C2)CC1
##########            Long Name:   NO_LONG_NAME
##########          FlexRecCode: 1
##########               Number:                  828
##########   Ligand Source File: /proj/zinc22/users/x_andlu/OGG1/revisions/docking/targets/smyd3/db2gen/split_par
##########                 Rank:                    1
##########               Setnum:                   12
##########             Matchnum:                    2
##########                Cloud:                    1
##########        Electrostatic:           -28.012804
##########                 Gist:             0.000000
##########        Van der Waals:           -31.495985
##########  Ligand Polar Desolv:             8.260434
########## Ligand Apolar Desolv:            -2.488541
##########      Internal Energy:             0.000000
##########      Receptor Energy:             0.000000
########## Receptor Desolvation:             0.000000
########## Receptor Hydrophobic:             0.000000
##########         Total Energy:           -53.736897
##########        Ligand Charge:             1.000000
##########            Arbitrary:    +999.9990
##########        Ligand Energy:             0.000000

@<TRIPOS>MOLECULE
smyd3_321      none
   49    51     0     0     0
SMALL
USER_CHARGES

@<TRIPOS>ATOM
      1 C1         20.5469   -4.4849   15.2693 C.3       1 <0>        -0.1600
      2 C2         21.0092   -3.0494   15.0110 C.3       1 <0>        -0.1200
      3 C3         19.9749   -2.0718   15.5728 C.3       1 <0>        -0.1500
      4 C4         20.4370   -0.6364   15.3145 C.3       1 <0>        -0.0100
      5 N1         19.4440    0.3023   15.8538 N.4       1 <0>        -0.3800
      6 H1         19.1038   -0.0431   16.7388 H         1 <0>         0.4200
      7 C5         20.0702    1.6151   16.0507 C.3       1 <0>        -0.0000
      8 C6         19.0629    2.5748   16.6878 C.3       1 <0>        -0.1600
      9 C7         17.8497    2.7193   15.7646 C.3       1 <0>         0.1400
     10 N2         16.8478    3.5767   16.4027 N.am      1 <0>        -0.7300
     11 C8         16.0244    4.3292   15.6462 C.2       1 <0>         0.5700
     12 O1         16.1131    4.2964   14.4341 O.2       1 <0>        -0.5300
     13 C9         15.0151    5.1930   16.2893 C.ar      1 <0>        -0.1700
     14 C10        14.5061    4.8635   17.5482 C.ar      1 <0>        -0.0500
     15 C11        13.5651    5.6680   18.1467 C.ar      1 <0>        -0.1500
     16 C12        13.1105    6.8205   17.5027 C.ar      1 <0>         0.1900
     17 N3         12.1797    7.7738   17.9019 N.am      1 <0>        -0.6600
     18 C13        12.0177    8.7447   16.9877 C.2       1 <0>         0.5300
     19 O2         11.2727    9.6978   17.0737 O.2       1 <0>        -0.4800
     20 C14        12.9390    8.4254   15.8296 C.3       1 <0>        -0.1200
     21 C15        13.6249    7.1444   16.2465 C.ar      1 <0>        -0.1500
     22 C16        14.5607    6.3473   15.6426 C.ar      1 <0>         0.0000
     23 C17        17.2490    1.3346   15.5063 C.3       1 <0>        -0.1600
     24 C18        18.3236    0.4209   14.9130 C.3       1 <0>        -0.0100
     25 H2         21.2838   -5.1813   14.8691 H         1 <0>         0.0600
     26 H3         20.4410   -4.6451   16.3423 H         1 <0>         0.0700
     27 H4         19.5870   -4.6510   14.7805 H         1 <0>         0.0600
     28 H5         21.1153   -2.8894   13.9381 H         1 <0>         0.0700
     29 H6         21.9691   -2.8834   15.4999 H         1 <0>         0.0700
     30 H7         19.8689   -2.2318   16.6457 H         1 <0>         0.0900
     31 H8         19.0149   -2.2379   15.0840 H         1 <0>         0.0900
     32 H9         20.5431   -0.4762   14.2416 H         1 <0>         0.1300
     33 H10        21.3970   -0.4702   15.8033 H         1 <0>         0.1300
     34 H11        20.3908    2.0123   15.0876 H         1 <0>         0.1300
     35 H12        20.9351    1.5096   16.7056 H         1 <0>         0.1400
     36 H13        19.5292    3.5494   16.8314 H         1 <0>         0.1200
     37 H14        18.7419    2.1784   17.6512 H         1 <0>         0.0900
     38 H15        18.1617    3.1645   14.8197 H         1 <0>         0.1100
     39 H16        16.7771    3.6029   17.3698 H         1 <0>         0.4100
     40 H17        14.8528    3.9738   18.0528 H         1 <0>         0.1300
     41 H18        13.1755    5.4069   19.1196 H         1 <0>         0.1400
     42 H19        11.7015    7.7413   18.7452 H         1 <0>         0.4200
     43 H20        12.3651    8.2718   14.9157 H         1 <0>         0.1300
     44 H21        13.6695    9.2226   15.6914 H         1 <0>         0.1300
     45 H22        14.9475    6.6106   14.6692 H         1 <0>         0.1500
     46 H23        16.8905    0.9126   16.4452 H         1 <0>         0.0900
     47 H24        16.4188    1.4227   14.8056 H         1 <0>         0.1200
     48 H25        18.6813    0.8436   13.9742 H         1 <0>         0.1300
     49 H26        17.8990   -0.5657   14.7282 H         1 <0>         0.1400
@<TRIPOS>BOND
     1    1    2 1
     2    1   25 1
     3    1   26 1
     4    1   27 1
     5    2    3 1
     6    2   28 1
     7    2   29 1
     8    3    4 1
     9    3   30 1
    10    3   31 1
    11    4    5 1
    12    4   32 1
    13    4   33 1
    14    5    6 1
    15    5   24 1
    16    5    7 1
    17    7    8 1
    18    7   34 1
    19    7   35 1
    20    8    9 1
    21    8   36 1
    22    8   37 1
    23    9   10 1
    24    9   23 1
    25    9   38 1
    26   10   11 am
    27   10   39 1
    28   11   12 2
    29   11   13 1
    30   13   22 ar
    31   13   14 ar
    32   14   15 ar
    33   14   40 1
    34   15   16 ar
    35   15   41 1
    36   16   21 ar
    37   16   17 1
    38   17   18 am
    39   17   42 1
    40   18   19 2
    41   18   20 1
    42   20   21 1
    43   20   43 1
    44   20   44 1
    45   21   22 ar
    46   22   45 1
    47   23   24 1
    48   23   46 1
    49   23   47 1
    50   24   48 1
    51   24   49 1
##########                 Name:            smyd3_322
##########          Protonation:                 none
##########               SMILES:   O=C1CC2=C(C=CC(C(=O)NC3CC[NH+](CCCO)CC3)=C2)N1
##########            Long Name:   NO_LONG_NAME
##########          FlexRecCode: 1
##########               Number:                  830
##########   Ligand Source File: /proj/zinc22/users/x_andlu/OGG1/revisions/docking/targets/smyd3/db2gen/split_par
##########                 Rank:                    1
##########               Setnum:                   74
##########             Matchnum:                   16
##########                Cloud:                    1
##########        Electrostatic:           -30.656439
##########                 Gist:             0.000000
##########        Van der Waals:           -29.912756
##########  Ligand Polar Desolv:             8.867450
########## Ligand Apolar Desolv:            -1.348876
##########      Internal Energy:             0.000000
##########      Receptor Energy:             0.000000
########## Receptor Desolvation:             0.000000
########## Receptor Hydrophobic:             0.000000
##########         Total Energy:           -53.050621
##########        Ligand Charge:             1.000000
##########            Arbitrary:    +999.9990
##########        Ligand Energy:             0.000000

@<TRIPOS>MOLECULE
smyd3_322      none
   47    49     0     0     0
SMALL
USER_CHARGES

@<TRIPOS>ATOM
      1 O1         11.2856    9.9703   17.0251 O.2       1 <0>        -0.4800
      2 C1         11.9905    8.9861   16.9503 C.2       1 <0>         0.5300
      3 C2         12.9063    8.6214   15.8013 C.3       1 <0>        -0.1200
      4 C3         13.5344    7.3151   16.2308 C.ar      1 <0>        -0.1500
      5 C4         12.9975    7.0207   17.4843 C.ar      1 <0>         0.1900
      6 C5         13.3978    5.8533   18.1384 C.ar      1 <0>        -0.1500
      7 C6         14.3079    5.0063   17.5516 C.ar      1 <0>        -0.0500
      8 C7         14.8403    5.3069   16.2948 C.ar      1 <0>        -0.1800
      9 C8         15.8171    4.3975   15.6643 C.2       1 <0>         0.5700
     10 O2         15.9134    4.3540   14.4532 O.2       1 <0>        -0.5300
     11 N1         16.6022    3.6154   16.4315 N.am      1 <0>        -0.7300
     12 C9         17.5717    2.7128   15.8059 C.3       1 <0>         0.1400
     13 C10        16.9150    1.3530   15.5506 C.3       1 <0>        -0.1600
     14 C11        17.9545    0.3914   14.9708 C.3       1 <0>        -0.0100
     15 N2         19.0617    0.2311   15.9210 N.4       1 <0>        -0.3800
     16 H1         18.7004   -0.0944   16.8051 H         1 <0>         0.4200
     17 C12        20.0183   -0.7518   15.3946 C.3       1 <0>        -0.0100
     18 C13        20.8764   -1.2922   16.5403 C.3       1 <0>        -0.1500
     19 C14        21.8728   -2.3159   15.9922 C.3       1 <0>         0.0800
     20 O3         22.7138   -1.6895   15.0214 O.3       1 <0>        -0.5700
     21 C15        19.7414    1.5174   16.1155 C.3       1 <0>        -0.0000
     22 C16        18.7706    2.5223   16.7394 C.3       1 <0>        -0.1600
     23 C17        14.4405    6.4754   15.6385 C.ar      1 <0>         0.0000
     24 N3         12.1045    8.0146   17.8710 N.am      1 <0>        -0.6600
     25 H2         12.3333    8.4865   14.8838 H         1 <0>         0.1300
     26 H3         13.6707    9.3862   15.6642 H         1 <0>         0.1300
     27 H4         12.9902    5.6146   19.1096 H         1 <0>         0.1400
     28 H5         14.6123    4.1053   18.0636 H         1 <0>         0.1300
     29 H6         16.5252    3.6500   17.3978 H         1 <0>         0.4100
     30 H7         17.9094    3.1388   14.8611 H         1 <0>         0.1100
     31 H8         16.5317    0.9521   16.4889 H         1 <0>         0.0900
     32 H9         16.0946    1.4722   14.8429 H         1 <0>         0.1200
     33 H10        18.3369    0.7932   14.0324 H         1 <0>         0.1300
     34 H11        17.4898   -0.5775   14.7881 H         1 <0>         0.1400
     35 H12        19.4752   -1.5738   14.9284 H         1 <0>         0.1300
     36 H13        20.6598   -0.2739   14.6542 H         1 <0>         0.1300
     37 H14        21.4196   -0.4702   17.0064 H         1 <0>         0.0900
     38 H15        20.2349   -1.7701   17.2807 H         1 <0>         0.1000
     39 H16        22.4841   -2.7010   16.8084 H         1 <0>         0.0600
     40 H17        21.3297   -3.1380   15.5260 H         1 <0>         0.0600
     41 H18        22.2359   -1.3231   14.2649 H         1 <0>         0.4000
     42 H19        20.0856    1.8952   15.1528 H         1 <0>         0.1300
     43 H20        20.5960    1.3793   16.7777 H         1 <0>         0.1400
     44 H21        19.2766    3.4773   16.8813 H         1 <0>         0.1200
     45 H22        18.4258    2.1464   17.7026 H         1 <0>         0.1000
     46 H23        14.8459    6.7169   14.6670 H         1 <0>         0.1500
     47 H24        11.6191    8.0071   18.7109 H         1 <0>         0.4200
@<TRIPOS>BOND
     1    1    2 2
     2    2   24 am
     3    2    3 1
     4    3    4 1
     5    3   25 1
     6    3   26 1
     7    4   23 ar
     8    4    5 ar
     9    5    6 ar
    10    5   24 1
    11    6    7 ar
    12    6   27 1
    13    7    8 ar
    14    7   28 1
    15    8    9 1
    16    8   23 ar
    17    9   10 2
    18    9   11 am
    19   11   12 1
    20   11   29 1
    21   12   22 1
    22   12   13 1
    23   12   30 1
    24   13   14 1
    25   13   31 1
    26   13   32 1
    27   14   15 1
    28   14   33 1
    29   14   34 1
    30   15   16 1
    31   15   17 1
    32   15   21 1
    33   17   18 1
    34   17   35 1
    35   17   36 1
    36   18   19 1
    37   18   37 1
    38   18   38 1
    39   19   20 1
    40   19   39 1
    41   19   40 1
    42   20   41 1
    43   21   22 1
    44   21   42 1
    45   21   43 1
    46   22   44 1
    47   22   45 1
    48   23   46 1
    49   24   47 1
##########                 Name:            smyd3_323
##########          Protonation:                 none
##########               SMILES:   O=C1CC2=C(C=CC(C(=O)NC3CC[NH+](CC4CC4)CC3)=C2)N1
##########            Long Name:   NO_LONG_NAME
##########          FlexRecCode: 1
##########               Number:                  832
##########   Ligand Source File: /proj/zinc22/users/x_andlu/OGG1/revisions/docking/targets/smyd3/db2gen/split_par
##########                 Rank:                    1
##########               Setnum:                    7
##########             Matchnum:                   10
##########                Cloud:                    1
##########        Electrostatic:           -27.016949
##########                 Gist:             0.000000
##########        Van der Waals:           -31.498768
##########  Ligand Polar Desolv:             8.087260
########## Ligand Apolar Desolv:            -2.480504
##########      Internal Energy:             0.000000
##########      Receptor Energy:             0.000000
########## Receptor Desolvation:             0.000000
########## Receptor Hydrophobic:             0.000000
##########         Total Energy:           -52.908958
##########        Ligand Charge:             1.000000
##########            Arbitrary:    +999.9990
##########        Ligand Energy:             0.000000

@<TRIPOS>MOLECULE
smyd3_323      none
   47    50     0     0     0
SMALL
USER_CHARGES

@<TRIPOS>ATOM
      1 O1         11.3114    9.8861   17.0106 O.2       1 <0>        -0.4800
      2 C1         12.0206    8.9046   16.9404 C.2       1 <0>         0.5300
      3 C2         12.9346    8.5361   15.7912 C.3       1 <0>        -0.1200
      4 C3         13.5698    7.2356   16.2278 C.ar      1 <0>        -0.1500
      5 C4         13.0379    6.9474   17.4849 C.ar      1 <0>         0.1900
      6 C5         13.4455    5.7864   18.1457 C.ar      1 <0>        -0.1500
      7 C6         14.3576    4.9394   17.5621 C.ar      1 <0>        -0.0500
      8 C7         14.8849    5.2338   16.3017 C.ar      1 <0>        -0.1700
      9 C8         15.8640    4.3244   15.6745 C.2       1 <0>         0.5700
     10 O2         15.9569    4.2731   14.4634 O.2       1 <0>        -0.5300
     11 N1         16.6548    3.5511   16.4447 N.am      1 <0>        -0.7300
     12 C9         17.6265    2.6486   15.8224 C.3       1 <0>         0.1400
     13 C10        16.9752    1.2842   15.5784 C.3       1 <0>        -0.1600
     14 C11        18.0173    0.3233   15.0021 C.3       1 <0>        -0.0100
     15 N2         19.1280    0.1744   15.9501 N.4       1 <0>        -0.3800
     16 H1         18.7697   -0.1459   16.8372 H         1 <0>         0.4200
     17 C12        20.0874   -0.8077   15.4276 C.3       1 <0>         0.0300
     18 C13        20.9514   -1.3365   16.5744 C.3       1 <0>        -0.2200
     19 C14        21.4540   -2.7781   16.4735 C.3       1 <0>        -0.1700
     20 C15        20.3496   -2.4209   17.4703 C.3       1 <0>        -0.1500
     21 C16        19.8025    1.4651   16.1337 C.3       1 <0>        -0.0000
     22 C17        18.8290    2.4699   16.7536 C.3       1 <0>        -0.1600
     23 C18        14.4779    6.3960   15.6386 C.ar      1 <0>         0.0000
     24 N3         12.1417    7.9400   17.8675 N.am      1 <0>        -0.6600
     25 H2         12.3595    8.3924   14.8764 H         1 <0>         0.1300
     26 H3         13.6951    9.3034   15.6467 H         1 <0>         0.1300
     27 H4         13.0418    5.5525   19.1197 H         1 <0>         0.1400
     28 H5         14.6675    4.0434   18.0793 H         1 <0>         0.1300
     29 H6         16.5806    3.5921   17.4110 H         1 <0>         0.4100
     30 H7         17.9595    3.0696   14.8738 H         1 <0>         0.1100
     31 H8         16.5965    0.8880   16.5206 H         1 <0>         0.0900
     32 H9         16.1522    1.3949   14.8723 H         1 <0>         0.1200
     33 H10        18.3951    0.7203   14.0598 H         1 <0>         0.1300
     34 H11        17.5568   -0.6490   14.8270 H         1 <0>         0.1300
     35 H12        19.5467   -1.6354   14.9687 H         1 <0>         0.1300
     36 H13        20.7247   -0.3320   14.6822 H         1 <0>         0.1300
     37 H14        21.6101   -0.6051   17.0427 H         1 <0>         0.1300
     38 H15        21.1692   -3.3497   15.5903 H         1 <0>         0.1100
     39 H16        22.4436   -2.9952   16.8754 H         1 <0>         0.1100
     40 H17        20.6126   -2.4032   18.5279 H         1 <0>         0.1100
     41 H18        19.3382   -2.7576   17.2428 H         1 <0>         0.1100
     42 H19        20.1422    1.8378   15.1674 H         1 <0>         0.1300
     43 H20        20.6600    1.3358   16.7941 H         1 <0>         0.1400
     44 H21        19.3311    3.4281   16.8875 H         1 <0>         0.1200
     45 H22        18.4888    2.0991   17.7204 H         1 <0>         0.0900
     46 H23        14.8794    6.6325   14.6643 H         1 <0>         0.1500
     47 H24        11.6588    7.9361   18.7088 H         1 <0>         0.4200
@<TRIPOS>BOND
     1    1    2 2
     2    2   24 am
     3    2    3 1
     4    3    4 1
     5    3   25 1
     6    3   26 1
     7    4   23 ar
     8    4    5 ar
     9    5    6 ar
    10    5   24 1
    11    6    7 ar
    12    6   27 1
    13    7    8 ar
    14    7   28 1
    15    8    9 1
    16    8   23 ar
    17    9   10 2
    18    9   11 am
    19   11   12 1
    20   11   29 1
    21   12   22 1
    22   12   13 1
    23   12   30 1
    24   13   14 1
    25   13   31 1
    26   13   32 1
    27   14   15 1
    28   14   33 1
    29   14   34 1
    30   15   16 1
    31   15   17 1
    32   15   21 1
    33   17   18 1
    34   17   35 1
    35   17   36 1
    36   18   20 1
    37   18   19 1
    38   18   37 1
    39   19   20 1
    40   19   38 1
    41   19   39 1
    42   20   40 1
    43   20   41 1
    44   21   22 1
    45   21   42 1
    46   21   43 1
    47   22   44 1
    48   22   45 1
    49   23   46 1
    50   24   47 1
##########                 Name:            smyd3_326
##########          Protonation:                 none
##########               SMILES:   COCC[NH+]1CCC(NC(=O)C2=CC=C3NC(=O)CC3=C2)CC1
##########            Long Name:   NO_LONG_NAME
##########          FlexRecCode: 1
##########               Number:                  845
##########   Ligand Source File: /proj/zinc22/users/x_andlu/OGG1/revisions/docking/targets/smyd3/db2gen/split_par
##########                 Rank:                    1
##########               Setnum:                   46
##########             Matchnum:                    2
##########                Cloud:                    1
##########        Electrostatic:           -28.073750
##########                 Gist:             0.000000
##########        Van der Waals:           -31.303749
##########  Ligand Polar Desolv:             8.637690
########## Ligand Apolar Desolv:            -1.698398
##########      Internal Energy:             0.000000
##########      Receptor Energy:             0.000000
########## Receptor Desolvation:             0.000000
########## Receptor Hydrophobic:             0.000000
##########         Total Energy:           -52.438206
##########        Ligand Charge:             1.000000
##########            Arbitrary:    +999.9990
##########        Ligand Energy:             0.000000

@<TRIPOS>MOLECULE
smyd3_326      none
   47    49     0     0     0
SMALL
USER_CHARGES

@<TRIPOS>ATOM
      1 C1         20.6350   -4.3017   15.3218 C.3       1 <0>         0.0300
      2 O1         20.9736   -2.9268   15.1295 O.3       1 <0>        -0.4000
      3 C2         20.0025   -2.0119   15.6413 C.3       1 <0>         0.0300
      4 C3         20.4666   -0.5772   15.3814 C.3       1 <0>        -0.0000
      5 N1         19.4684    0.3634   15.9075 N.4       1 <0>        -0.3800
      6 H1         19.1199    0.0215   16.7906 H         1 <0>         0.4300
      7 C4         20.0925    1.6771   16.1050 C.3       1 <0>        -0.0100
      8 C5         19.0790    2.6390   16.7286 C.3       1 <0>        -0.1600
      9 C6         17.8746    2.7796   15.7934 C.3       1 <0>         0.1400
     10 N2         16.8665    3.6393   16.4187 N.am      1 <0>        -0.7300
     11 C7         16.0501    4.3884   15.6514 C.2       1 <0>         0.5700
     12 O2         16.1502    4.3507   14.4403 O.2       1 <0>        -0.5300
     13 C8         15.0343    5.2544   16.2814 C.ar      1 <0>        -0.1700
     14 C9         14.5135    4.9296   17.5367 C.ar      1 <0>        -0.0500
     15 C10        13.5665    5.7360   18.1230 C.ar      1 <0>        -0.1500
     16 C11        13.1177    6.8858   17.4702 C.ar      1 <0>         0.1900
     17 N3         12.1828    7.8404   17.8568 N.am      1 <0>        -0.6600
     18 C12        12.0292    8.8077   16.9373 C.2       1 <0>         0.5300
     19 O3         11.2831    9.7608   17.0125 O.2       1 <0>        -0.4800
     20 C13        12.9617    8.4843   15.7894 C.3       1 <0>        -0.1200
     21 C14        13.6440    7.2050   16.2178 C.ar      1 <0>        -0.1500
     22 C15        14.5858    6.4059   15.6260 C.ar      1 <0>         0.0000
     23 C16        17.2766    1.3936   15.5353 C.3       1 <0>        -0.1600
     24 C17        18.3569    0.4779   14.9557 C.3       1 <0>        -0.0000
     25 H2         21.4218   -4.9313   14.9062 H         1 <0>         0.1000
     26 H3         20.5320   -4.5048   16.3877 H         1 <0>         0.0600
     27 H4         19.6928   -4.5177   14.8181 H         1 <0>         0.0500
     28 H5         19.8864   -2.1675   16.7139 H         1 <0>         0.1000
     29 H6         19.0472   -2.1803   15.1442 H         1 <0>         0.0700
     30 H7         20.5825   -0.4217   14.3088 H         1 <0>         0.1400
     31 H8         21.4219   -0.4089   15.8784 H         1 <0>         0.1400
     32 H9         20.4219    2.0706   15.1432 H         1 <0>         0.1300
     33 H10        20.9512    1.5744   16.7683 H         1 <0>         0.1300
     34 H11        19.5438    3.6144   16.8727 H         1 <0>         0.1200
     35 H12        18.7492    2.2466   17.6906 H         1 <0>         0.1000
     36 H13        18.1954    3.2210   14.8498 H         1 <0>         0.1100
     37 H14        16.7868    3.6695   17.3849 H         1 <0>         0.4100
     38 H15        14.8556    4.0419   18.0481 H         1 <0>         0.1300
     39 H16        13.1676    5.4786   19.0932 H         1 <0>         0.1400
     40 H17        11.6966    7.8110   18.6956 H         1 <0>         0.4200
     41 H18        12.3966    8.3268   14.8707 H         1 <0>         0.1300
     42 H19        13.6932    9.2811   15.6551 H         1 <0>         0.1300
     43 H20        14.9817    6.6657   14.6553 H         1 <0>         0.1500
     44 H21        16.9092    0.9754   16.4724 H         1 <0>         0.0900
     45 H22        16.4530    1.4788   14.8263 H         1 <0>         0.1200
     46 H23        18.7232    0.8968   14.0186 H         1 <0>         0.1300
     47 H24        17.9341   -0.5096   14.7711 H         1 <0>         0.1400
@<TRIPOS>BOND
     1    1    2 1
     2    1   25 1
     3    1   26 1
     4    1   27 1
     5    2    3 1
     6    3    4 1
     7    3   28 1
     8    3   29 1
     9    4    5 1
    10    4   30 1
    11    4   31 1
    12    5    6 1
    13    5   24 1
    14    5    7 1
    15    7    8 1
    16    7   32 1
    17    7   33 1
    18    8    9 1
    19    8   34 1
    20    8   35 1
    21    9   10 1
    22    9   23 1
    23    9   36 1
    24   10   11 am
    25   10   37 1
    26   11   12 2
    27   11   13 1
    28   13   22 ar
    29   13   14 ar
    30   14   15 ar
    31   14   38 1
    32   15   16 ar
    33   15   39 1
    34   16   21 ar
    35   16   17 1
    36   17   18 am
    37   17   40 1
    38   18   19 2
    39   18   20 1
    40   20   21 1
    41   20   41 1
    42   20   42 1
    43   21   22 ar
    44   22   43 1
    45   23   24 1
    46   23   44 1
    47   23   45 1
    48   24   46 1
    49   24   47 1
##########                 Name:            smyd3_327
##########          Protonation:                 none
##########               SMILES:   COC(=O)N1CCC(NC(=O)C2=CC=C3NC(=O)CC3=C2)CC1
##########            Long Name:   NO_LONG_NAME
##########          FlexRecCode: 1
##########               Number:                  846
##########   Ligand Source File: /proj/zinc22/users/x_andlu/OGG1/revisions/docking/targets/smyd3/db2gen/split_par
##########                 Rank:                    1
##########               Setnum:                    6
##########             Matchnum:                    9
##########                Cloud:                    1
##########        Electrostatic:           -17.695644
##########                 Gist:             0.000000
##########        Van der Waals:           -31.579929
##########  Ligand Polar Desolv:             6.593547
########## Ligand Apolar Desolv:            -1.374034
##########      Internal Energy:             0.000000
##########      Receptor Energy:             0.000000
########## Receptor Desolvation:             0.000000
########## Receptor Hydrophobic:             0.000000
##########         Total Energy:           -44.056061
##########        Ligand Charge:             0.000000
##########            Arbitrary:    +999.9990
##########        Ligand Energy:             0.000000

@<TRIPOS>MOLECULE
smyd3_327      none
   42    44     0     0     0
SMALL
USER_CHARGES

@<TRIPOS>ATOM
      1 C1         20.1186   -3.1017   16.1681 C.3       1 <0>         0.0600
      2 O1         19.4820   -1.8795   15.7106 O.3       1 <0>        -0.3700
      3 C2         20.0485   -0.7175   16.0868 C.2       1 <0>         0.6500
      4 O2         21.0475   -0.7244   16.7785 O.2       1 <0>        -0.5700
      5 N1         19.5076    0.4536   15.6962 N.am      1 <0>        -0.6000
      6 C3         20.1143    1.7297   16.0987 C.3       1 <0>         0.1300
      7 C4         19.0414    2.5977   16.7638 C.3       1 <0>        -0.1400
      8 C5         17.8474    2.7403   15.8173 C.3       1 <0>         0.1500
      9 N2         16.8332    3.5971   16.4367 N.am      1 <0>        -0.7200
     10 C6         16.0261    4.3519   15.6650 C.2       1 <0>         0.5700
     11 O3         16.1397    4.3217   14.4549 O.2       1 <0>        -0.5300
     12 C7         15.0043    5.2150   16.2890 C.ar      1 <0>        -0.1600
     13 C8         14.4692    4.8830   17.5364 C.ar      1 <0>        -0.0500
     14 C9         13.5172    5.6874   18.1176 C.ar      1 <0>        -0.1500
     15 C10        13.0777    6.8423   17.4675 C.ar      1 <0>         0.1700
     16 N3         12.1406    7.7963   17.8502 N.am      1 <0>        -0.6600
     17 C11        11.9989    8.7698   16.9355 C.2       1 <0>         0.5300
     18 O4         11.2544    9.7243   17.0090 O.2       1 <0>        -0.4900
     19 C12        12.9431    8.4520   15.7955 C.3       1 <0>        -0.1200
     20 C13        13.6183    7.1686   16.2229 C.ar      1 <0>        -0.1500
     21 C14        14.5648    6.3715   15.6361 C.ar      1 <0>        -0.0000
     22 C15        17.2477    1.3601   15.5387 C.3       1 <0>        -0.1500
     23 C16        18.3001    0.4782   14.8594 C.3       1 <0>         0.1100
     24 H1         19.5630   -3.9622   15.7952 H         1 <0>         0.1000
     25 H2         21.1418   -3.1402   15.7945 H         1 <0>         0.0600
     26 H3         20.1287   -3.1201   17.2579 H         1 <0>         0.0600
     27 H4         20.5054    2.2418   15.2196 H         1 <0>         0.0800
     28 H5         20.9242    1.5452   16.8045 H         1 <0>         0.1000
     29 H6         19.4536    3.5832   16.9805 H         1 <0>         0.0900
     30 H7         18.7159    2.1274   17.6917 H         1 <0>         0.0800
     31 H8         18.1782    3.1884   14.8803 H         1 <0>         0.1000
     32 H9         16.7425    3.6212   17.4021 H         1 <0>         0.4000
     33 H10        14.8042    3.9916   18.0457 H         1 <0>         0.1300
     34 H11        13.1077    5.4246   19.0817 H         1 <0>         0.1400
     35 H12        11.6454    7.7625   18.6836 H         1 <0>         0.4200
     36 H13        12.3876    8.3017   14.8697 H         1 <0>         0.1300
     37 H14        13.6776    9.2482   15.6744 H         1 <0>         0.1300
     38 H15        14.9717    6.6367   14.6715 H         1 <0>         0.1400
     39 H16        16.9395    0.9011   16.4780 H         1 <0>         0.0700
     40 H17        16.3831    1.4647   14.8833 H         1 <0>         0.0900
     41 H18        18.5433    0.8882   13.8792 H         1 <0>         0.0800
     42 H19        17.9132   -0.5345   14.7462 H         1 <0>         0.1000
@<TRIPOS>BOND
     1    1    2 1
     2    1   24 1
     3    1   25 1
     4    1   26 1
     5    2    3 1
     6    3    4 2
     7    3    5 am
     8    5   23 1
     9    5    6 1
    10    6    7 1
    11    6   27 1
    12    6   28 1
    13    7    8 1
    14    7   29 1
    15    7   30 1
    16    8    9 1
    17    8   22 1
    18    8   31 1
    19    9   10 am
    20    9   32 1
    21   10   11 2
    22   10   12 1
    23   12   21 ar
    24   12   13 ar
    25   13   14 ar
    26   13   33 1
    27   14   15 ar
    28   14   34 1
    29   15   20 ar
    30   15   16 1
    31   16   17 am
    32   16   35 1
    33   17   18 2
    34   17   19 1
    35   19   20 1
    36   19   36 1
    37   19   37 1
    38   20   21 ar
    39   21   38 1
    40   22   23 1
    41   22   39 1
    42   22   40 1
    43   23   41 1
    44   23   42 1
##########                 Name:            smyd3_328
##########          Protonation:                 none
##########               SMILES:   CS(=O)(=O)N1CCC(NC(=O)C2=CC=C3NC(=O)CC3=C2)CC1
##########            Long Name:   NO_LONG_NAME
##########          FlexRecCode: 1
##########               Number:                  848
##########   Ligand Source File: /proj/zinc22/users/x_andlu/OGG1/revisions/docking/targets/smyd3/db2gen/split_par
##########                 Rank:                    1
##########               Setnum:                    3
##########             Matchnum:                    5
##########                Cloud:                    1
##########        Electrostatic:           -21.117010
##########                 Gist:             0.000000
##########        Van der Waals:           -32.190285
##########  Ligand Polar Desolv:             7.854594
########## Ligand Apolar Desolv:            -0.598860
##########      Internal Energy:             0.000000
##########      Receptor Energy:             0.000000
########## Receptor Desolvation:             0.000000
########## Receptor Hydrophobic:             0.000000
##########         Total Energy:           -46.051563
##########        Ligand Charge:             0.000000
##########            Arbitrary:    +999.9990
##########        Ligand Energy:             0.000000

@<TRIPOS>MOLECULE
smyd3_328      none
   42    44     0     0     0
SMALL
USER_CHARGES

@<TRIPOS>ATOM
      1 C1         20.7817   -1.7262   15.0256 C.3       1 <0>        -0.6700
      2 S1         19.6322   -1.2172   16.3332 S.o2      1 <0>         2.6100
      3 O1         20.3392   -0.9107   17.5271 O.2       1 <0>        -0.9500
      4 O2         18.4929   -2.0661   16.3539 O.2       1 <0>        -0.9500
      5 N1         19.0438    0.2434   15.8206 N.pl3     1 <0>        -1.0000
      6 C2         19.7215    1.4942   16.1879 C.3       1 <0>         0.1200
      7 C3         18.7016    2.4356   16.8363 C.3       1 <0>        -0.1500
      8 C4         17.5111    2.6195   15.8923 C.3       1 <0>         0.1500
      9 N2         16.5489    3.5454   16.4950 N.am      1 <0>        -0.7300
     10 C5         15.7793    4.3237   15.7086 C.2       1 <0>         0.5700
     11 O3         15.8834    4.2573   14.4991 O.2       1 <0>        -0.5300
     12 C6         14.8098    5.2564   16.3158 C.ar      1 <0>        -0.1600
     13 C7         14.2653    4.9851   17.5738 C.ar      1 <0>        -0.0500
     14 C8         13.3621    5.8543   18.1392 C.ar      1 <0>        -0.1500
     15 C9         12.9819    7.0150   17.4625 C.ar      1 <0>         0.1700
     16 N3         12.1005    8.0279   17.8257 N.am      1 <0>        -0.6600
     17 C10        12.0062    8.9847   16.8876 C.2       1 <0>         0.5300
     18 O4         11.3151    9.9798   16.9408 O.2       1 <0>        -0.4900
     19 C11        12.9246    8.5877   15.7513 C.3       1 <0>        -0.1200
     20 C12        13.5316    7.2804   16.2075 C.ar      1 <0>        -0.1500
     21 C13        14.4297    6.4186   15.6362 C.ar      1 <0>        -0.0000
     22 C14        16.8356    1.2675   15.6515 C.3       1 <0>        -0.1500
     23 C15        17.8342    0.3131   14.9893 C.3       1 <0>         0.1200
     24 H1         20.2220   -1.9569   14.1192 H         1 <0>         0.1300
     25 H2         21.4835   -0.9170   14.8232 H         1 <0>         0.1300
     26 H3         21.3306   -2.6109   15.3485 H         1 <0>         0.1300
     27 H4         20.1343    1.9622   15.2943 H         1 <0>         0.0800
     28 H5         20.5233    1.2813   16.8950 H         1 <0>         0.1000
     29 H6         19.1681    3.4022   17.0261 H         1 <0>         0.0900
     30 H7         18.3570    2.0063   17.7771 H         1 <0>         0.0700
     31 H8         17.8599    3.0255   14.9428 H         1 <0>         0.1000
     32 H9         16.4657    3.5984   17.4600 H         1 <0>         0.4000
     33 H10        14.5546    4.0897   18.1036 H         1 <0>         0.1300
     34 H11        12.9450    5.6383   19.1116 H         1 <0>         0.1400
     35 H12        11.6095    8.0418   18.6621 H         1 <0>         0.4200
     36 H13        12.3559    8.4450   14.8323 H         1 <0>         0.1300
     37 H14        13.7005    9.3394   15.6066 H         1 <0>         0.1300
     38 H15        14.8444    6.6372   14.6633 H         1 <0>         0.1400
     39 H16        16.5087    0.8495   16.6035 H         1 <0>         0.0700
     40 H17        15.9738    1.4028   14.9980 H         1 <0>         0.0800
     41 H18        18.0931    0.6848   13.9980 H         1 <0>         0.0800
     42 H19        17.3921   -0.6796   14.9035 H         1 <0>         0.1000
@<TRIPOS>BOND
     1    1    2 1
     2    1   24 1
     3    1   25 1
     4    1   26 1
     5    2    3 2
     6    2    4 2
     7    2    5 1
     8    5   23 1
     9    5    6 1
    10    6    7 1
    11    6   27 1
    12    6   28 1
    13    7    8 1
    14    7   29 1
    15    7   30 1
    16    8    9 1
    17    8   22 1
    18    8   31 1
    19    9   10 am
    20    9   32 1
    21   10   11 2
    22   10   12 1
    23   12   21 ar
    24   12   13 ar
    25   13   14 ar
    26   13   33 1
    27   14   15 ar
    28   14   34 1
    29   15   20 ar
    30   15   16 1
    31   16   17 am
    32   16   35 1
    33   17   18 2
    34   17   19 1
    35   19   20 1
    36   19   36 1
    37   19   37 1
    38   20   21 ar
    39   21   38 1
    40   22   23 1
    41   22   39 1
    42   22   40 1
    43   23   41 1
    44   23   42 1
##########                 Name:            smyd3_329
##########          Protonation:                 none
##########               SMILES:   NS(=O)(=O)N1CCC(NC(=O)C2=CC3=C(C=C2)NC(=O)C3)CC1
##########            Long Name:   NO_LONG_NAME
##########          FlexRecCode: 1
##########               Number:                  850
##########   Ligand Source File: /proj/zinc22/users/x_andlu/OGG1/revisions/docking/targets/smyd3/db2gen/split_par
##########                 Rank:                    1
##########               Setnum:                    3
##########             Matchnum:                    9
##########                Cloud:                    1
##########        Electrostatic:           -21.774288
##########                 Gist:             0.000000
##########        Van der Waals:           -31.029415
##########  Ligand Polar Desolv:             7.316344
########## Ligand Apolar Desolv:             0.026599
##########      Internal Energy:             0.000000
##########      Receptor Energy:             0.000000
########## Receptor Desolvation:             0.000000
########## Receptor Hydrophobic:             0.000000
##########         Total Energy:           -45.460758
##########        Ligand Charge:             0.000000
##########            Arbitrary:    +999.9990
##########        Ligand Energy:             0.000000

@<TRIPOS>MOLECULE
smyd3_329      none
   41    43     0     0     0
SMALL
USER_CHARGES

@<TRIPOS>ATOM
      1 N1         20.6283   -1.7222   15.0399 N.pl3     1 <0>        -1.2600
      2 S1         19.5723   -1.2018   16.2046 S.o2      1 <0>         2.8000
      3 O1         20.3483   -0.9576   17.3697 O.2       1 <0>        -0.9800
      4 O2         18.4714   -2.0999   16.1781 O.2       1 <0>        -0.9800
      5 N2         18.9881    0.2684   15.7152 N.pl3     1 <0>        -1.0000
      6 C1         19.6730    1.5108   16.0971 C.3       1 <0>         0.1200
      7 C2         18.6604    2.4470   16.7642 C.3       1 <0>        -0.1400
      8 C3         17.4661    2.6497   15.8291 C.3       1 <0>         0.1500
      9 N3         16.5109    3.5708   16.4499 N.am      1 <0>        -0.7300
     10 C4         15.7405    4.3636   15.6787 C.2       1 <0>         0.5700
     11 O3         15.8382    4.3142   14.4679 O.2       1 <0>        -0.5300
     12 C5         14.7782    5.2916   16.3043 C.ar      1 <0>        -0.1600
     13 C6         14.3994    6.4645   15.6433 C.ar      1 <0>        -0.0000
     14 C7         13.5074    7.3219   16.2315 C.ar      1 <0>        -0.1500
     15 C8         12.9636    7.0411   17.4853 C.ar      1 <0>         0.1700
     16 C9         13.3431    5.8693   18.1438 C.ar      1 <0>        -0.1500
     17 C10        14.2392    5.0047   17.5616 C.ar      1 <0>        -0.0500
     18 N4         12.0879    8.0520   17.8674 N.am      1 <0>        -0.6600
     19 C11        11.9922    9.0223   16.9433 C.2       1 <0>         0.5300
     20 O4         11.3047   10.0189   17.0139 O.2       1 <0>        -0.4900
     21 C12        12.9031    8.6376   15.7968 C.3       1 <0>        -0.1200
     22 C13        16.7835    1.3043   15.5721 C.3       1 <0>        -0.1500
     23 C14        17.7747    0.3552   14.8913 C.3       1 <0>         0.1200
     24 H1         21.5683   -1.4907   15.0993 H         1 <0>         0.4100
     25 H2         20.3067   -2.2585   14.2984 H         1 <0>         0.4200
     26 H3         20.0833    1.9901   15.2082 H         1 <0>         0.0800
     27 H4         20.4788    1.2864   16.7960 H         1 <0>         0.1000
     28 H5         19.1321    3.4090   16.9657 H         1 <0>         0.0900
     29 H6         18.3187    2.0058   17.7004 H         1 <0>         0.0700
     30 H7         17.8118    3.0678   14.8837 H         1 <0>         0.1000
     31 H8         16.4330    3.6103   17.4159 H         1 <0>         0.4000
     32 H9         14.8101    6.6953   14.6715 H         1 <0>         0.1400
     33 H10        12.9299    5.6411   19.1153 H         1 <0>         0.1400
     34 H11        14.5275    4.1006   18.0772 H         1 <0>         0.1300
     35 H12        11.6015    8.0560   18.7066 H         1 <0>         0.4200
     36 H13        12.3291    8.5098   14.8790 H         1 <0>         0.1300
     37 H14        13.6811    9.3884   15.6583 H         1 <0>         0.1300
     38 H15        16.4597    0.8738   16.5197 H         1 <0>         0.0700
     39 H16        15.9190    1.4525   14.9250 H         1 <0>         0.0900
     40 H17        18.0302    0.7401   13.9040 H         1 <0>         0.0800
     41 H18        17.3280   -0.6342   14.7933 H         1 <0>         0.1000
@<TRIPOS>BOND
     1    1    2 1
     2    1   24 1
     3    1   25 1
     4    2    3 2
     5    2    4 2
     6    2    5 1
     7    5   23 1
     8    5    6 1
     9    6    7 1
    10    6   26 1
    11    6   27 1
    12    7    8 1
    13    7   28 1
    14    7   29 1
    15    8    9 1
    16    8   22 1
    17    8   30 1
    18    9   10 am
    19    9   31 1
    20   10   11 2
    21   10   12 1
    22   12   17 ar
    23   12   13 ar
    24   13   14 ar
    25   13   32 1
    26   14   21 1
    27   14   15 ar
    28   15   16 ar
    29   15   18 1
    30   16   17 ar
    31   16   33 1
    32   17   34 1
    33   18   19 am
    34   18   35 1
    35   19   20 2
    36   19   21 1
    37   21   36 1
    38   21   37 1
    39   22   23 1
    40   22   38 1
    41   22   39 1
    42   23   40 1
    43   23   41 1
##########                 Name:            smyd3_330
##########          Protonation:                 none
##########               SMILES:   O=C1CC2=C(C=CC(C(=O)NC3CCN(S(=O)(=O)F)CC3)=C2)N1
##########            Long Name:   NO_LONG_NAME
##########          FlexRecCode: 1
##########               Number:                  853
##########   Ligand Source File: /proj/zinc22/users/x_andlu/OGG1/revisions/docking/targets/smyd3/db2gen/split_par
##########                 Rank:                    1
##########               Setnum:                    4
##########             Matchnum:                    9
##########                Cloud:                    1
##########        Electrostatic:           -19.983980
##########                 Gist:             0.000000
##########        Van der Waals:           -31.716230
##########  Ligand Polar Desolv:             6.903075
########## Ligand Apolar Desolv:            -0.566889
##########      Internal Energy:             0.000000
##########      Receptor Energy:             0.000000
########## Receptor Desolvation:             0.000000
########## Receptor Hydrophobic:             0.000000
##########         Total Energy:           -45.364021
##########        Ligand Charge:             0.000000
##########            Arbitrary:    +999.9990
##########        Ligand Energy:             0.000000

@<TRIPOS>MOLECULE
smyd3_330      none
   39    41     0     0     0
SMALL
USER_CHARGES

@<TRIPOS>ATOM
      1 O1         11.2997    9.8350   16.9955 O.2       1 <0>        -0.4900
      2 C1         12.0192    8.8612   16.9269 C.2       1 <0>         0.5300
      3 C2         12.9500    8.5097   15.7856 C.3       1 <0>        -0.1200
      4 C3         13.5907    7.2123   16.2230 C.ar      1 <0>        -0.1500
      5 C4         13.0508    6.9110   17.4701 C.ar      1 <0>         0.1700
      6 C5         13.4639    5.7504   18.1283 C.ar      1 <0>        -0.1500
      7 C6         14.3882    4.9148   17.5475 C.ar      1 <0>        -0.0500
      8 C7         14.9305    5.2257   16.2974 C.ar      1 <0>        -0.1600
      9 C8         15.9267    4.3314   15.6760 C.2       1 <0>         0.5700
     10 O2         16.0341    4.2886   14.4657 O.2       1 <0>        -0.5300
     11 N1         16.7175    3.5621   16.4503 N.am      1 <0>        -0.7300
     12 C9         17.7063    2.6745   15.8336 C.3       1 <0>         0.1500
     13 C10        18.9006    2.5085   16.7761 C.3       1 <0>        -0.1500
     14 C11        19.9475    1.6075   16.1137 C.3       1 <0>         0.1200
     15 N2         19.3060    0.3443   15.7243 N.pl3     1 <0>        -1.0100
     16 S1         19.9352   -1.1073   16.2131 S.o2      1 <0>         2.7600
     17 O3         18.8647   -2.0412   16.1769 O.2       1 <0>        -0.9400
     18 O4         20.6953   -0.8414   17.3838 O.2       1 <0>        -0.9400
     19 F1         20.9851   -1.5755   15.0859 F         1 <0>        -0.4900
     20 C12        18.0990    0.3934   14.8878 C.3       1 <0>         0.1200
     21 C13        17.0696    1.3082   15.5686 C.3       1 <0>        -0.1500
     22 C14        14.5179    6.3875   15.6370 C.ar      1 <0>        -0.0000
     23 N3         12.1400    7.8918   17.8489 N.am      1 <0>        -0.6600
     24 H1         13.7057    9.2845   15.6563 H         1 <0>         0.1300
     25 H2         12.3867    8.3662   14.8635 H         1 <0>         0.1300
     26 H3         13.0521    5.5061   19.0962 H         1 <0>         0.1400
     27 H4         14.6995    4.0170   18.0609 H         1 <0>         0.1300
     28 H5         16.6318    3.5963   17.4159 H         1 <0>         0.4000
     29 H6         18.0445    3.1063   14.8916 H         1 <0>         0.1000
     30 H7         18.5672    2.0539   17.7090 H         1 <0>         0.0800
     31 H8         19.3392    3.4846   16.9829 H         1 <0>         0.0900
     32 H9         20.7543    1.4056   16.8182 H         1 <0>         0.1000
     33 H10        20.3500    2.1008   15.2289 H         1 <0>         0.0900
     34 H11        18.3516    0.7910   13.9049 H         1 <0>         0.0900
     35 H12        17.6858   -0.6097   14.7833 H         1 <0>         0.1000
     36 H13        16.7536    0.8649   16.5129 H         1 <0>         0.0700
     37 H14        16.2051    1.4301   14.9160 H         1 <0>         0.0900
     38 H15        14.9275    6.6345   14.6687 H         1 <0>         0.1500
     39 H16        11.6477    7.8773   18.6846 H         1 <0>         0.4200
@<TRIPOS>BOND
     1    1    2 2
     2    2   23 am
     3    2    3 1
     4    3    4 1
     5    3   24 1
     6    3   25 1
     7    4   22 ar
     8    4    5 ar
     9    5    6 ar
    10    5   23 1
    11    6    7 ar
    12    6   26 1
    13    7    8 ar
    14    7   27 1
    15    8    9 1
    16    8   22 ar
    17    9   10 2
    18    9   11 am
    19   11   12 1
    20   11   28 1
    21   12   21 1
    22   12   13 1
    23   12   29 1
    24   13   14 1
    25   13   30 1
    26   13   31 1
    27   14   15 1
    28   14   32 1
    29   14   33 1
    30   15   16 1
    31   15   20 1
    32   16   17 2
    33   16   18 2
    34   16   19 1
    35   20   21 1
    36   20   34 1
    37   20   35 1
    38   21   36 1
    39   21   37 1
    40   22   38 1
    41   23   39 1
##########                 Name:            smyd3_332
##########          Protonation:                 none
##########               SMILES:   CC[N@@H+]1CCC(N(C)C(=O)C2=CC3=C(C=C2Cl)NC(=O)C3)CC1C
##########            Long Name:   NO_LONG_NAME
##########          FlexRecCode: 1
##########               Number:                  861
##########   Ligand Source File: /proj/zinc22/users/x_andlu/OGG1/revisions/docking/targets/smyd3/db2gen/split_par
##########                 Rank:                    1
##########               Setnum:                   24
##########             Matchnum:                    1
##########                Cloud:                    1
##########        Electrostatic:           -21.875900
##########                 Gist:             0.000000
##########        Van der Waals:           -31.597559
##########  Ligand Polar Desolv:            10.459845
########## Ligand Apolar Desolv:            -2.695982
##########      Internal Energy:             0.000000
##########      Receptor Energy:             0.000000
########## Receptor Desolvation:             0.000000
########## Receptor Hydrophobic:             0.000000
##########         Total Energy:           -45.709595
##########        Ligand Charge:             1.000000
##########            Arbitrary:    +999.9990
##########        Ligand Energy:             0.000000

@<TRIPOS>MOLECULE
smyd3_332      none
   49    51     0     0     0
SMALL
USER_CHARGES

@<TRIPOS>ATOM
      1 C1         20.6062   -0.4317   16.3019 C.3       1 <0>        -0.1900
      2 C2         19.3565   -1.0191   15.6429 C.3       1 <0>        -0.0200
      3 N1         18.3299    0.0247   15.5226 N.4       1 <0>        -0.3800
      4 H1         17.5062   -0.3637   15.0878 H         1 <0>         0.4200
      5 C3         18.8454    1.1231   14.6965 C.3       1 <0>        -0.0100
      6 C4         17.7514    2.1747   14.4994 C.3       1 <0>        -0.1600
      7 C5         17.3249    2.7200   15.8653 C.3       1 <0>         0.1300
      8 N2         16.2261    3.6735   15.6926 N.am      1 <0>        -0.6100
      9 C6         14.9688    3.2391   15.0789 C.3       1 <0>         0.0700
     10 C7         16.3721    4.9505   16.0982 C.2       1 <0>         0.5700
     11 O1         17.4717    5.4694   16.0890 O.2       1 <0>        -0.5000
     12 C8         15.1978    5.7187   16.5534 C.ar      1 <0>        -0.1600
     13 C9         14.8296    6.8978   15.8971 C.ar      1 <0>        -0.0200
     14 C10        13.7327    7.6024   16.3247 C.ar      1 <0>        -0.1500
     15 C11        12.9812    7.1682   17.4136 C.ar      1 <0>         0.1900
     16 C12        13.3519    5.9942   18.0717 C.ar      1 <0>        -0.1400
     17 C13        14.4474    5.2764   17.6482 C.ar      1 <0>         0.0500
     18 Cl1        14.8994    3.8185   18.4751 Cl        1 <0>        -0.0300
     19 N3         11.9315    8.0484   17.6545 N.am      1 <0>        -0.6600
     20 C14        11.9147    9.0742   16.7872 C.2       1 <0>         0.5300
     21 O2         11.1146    9.9852   16.7647 O.2       1 <0>        -0.4800
     22 C15        13.0825    8.8797   15.8436 C.3       1 <0>        -0.1100
     23 C16        16.8594    1.5564   16.7456 C.3       1 <0>        -0.1500
     24 C17        17.9859    0.5269   16.8582 C.3       1 <0>         0.0300
     25 C18        17.5248   -0.6376   17.7371 C.3       1 <0>        -0.1800
     26 H2         21.3680   -1.2064   16.3911 H         1 <0>         0.0800
     27 H3         20.9890    0.3857   15.6910 H         1 <0>         0.1100
     28 H4         20.3519   -0.0564   17.2931 H         1 <0>         0.0800
     29 H5         19.6109   -1.3945   14.6516 H         1 <0>         0.1300
     30 H6         18.9736   -1.8366   16.2538 H         1 <0>         0.1300
     31 H7         19.7028    1.5783   15.1922 H         1 <0>         0.1300
     32 H8         19.1525    0.7338   13.7258 H         1 <0>         0.1400
     33 H9         16.8930    1.7203   14.0046 H         1 <0>         0.0900
     34 H10        18.1362    2.9897   13.8862 H         1 <0>         0.1200
     35 H11        18.1701    3.2196   16.3385 H         1 <0>         0.1200
     36 H12        14.2763    4.0797   15.0353 H         1 <0>         0.0700
     37 H13        15.1635    2.8761   14.0698 H         1 <0>         0.0800
     38 H14        14.5312    2.4384   15.6751 H         1 <0>         0.0700
     39 H15        15.4047    7.2505   15.0538 H         1 <0>         0.1500
     40 H16        12.7766    5.6476   18.9175 H         1 <0>         0.1500
     41 H17        11.2843    7.9343   18.3680 H         1 <0>         0.4200
     42 H18        13.7786    9.7151   15.9198 H         1 <0>         0.1300
     43 H19        12.7327    8.7675   14.8174 H         1 <0>         0.1300
     44 H20        15.9825    1.0891   16.2975 H         1 <0>         0.0900
     45 H21        16.6067    1.9294   17.7382 H         1 <0>         0.1200
     46 H22        18.8620    0.9952   17.3066 H         1 <0>         0.1400
     47 H23        17.2692   -0.2649   18.7290 H         1 <0>         0.0900
     48 H24        16.6492   -1.1069   17.2886 H         1 <0>         0.1100
     49 H25        18.3275   -1.3702   17.8199 H         1 <0>         0.0800
@<TRIPOS>BOND
     1    1    2 1
     2    1   26 1
     3    1   27 1
     4    1   28 1
     5    2    3 1
     6    2   29 1
     7    2   30 1
     8    3    4 1
     9    3   24 1
    10    3    5 1
    11    5    6 1
    12    5   31 1
    13    5   32 1
    14    6    7 1
    15    6   33 1
    16    6   34 1
    17    7    8 1
    18    7   23 1
    19    7   35 1
    20    8    9 1
    21    8   10 am
    22    9   36 1
    23    9   37 1
    24    9   38 1
    25   10   11 2
    26   10   12 1
    27   12   17 ar
    28   12   13 ar
    29   13   14 ar
    30   13   39 1
    31   14   22 1
    32   14   15 ar
    33   15   16 ar
    34   15   19 1
    35   16   17 ar
    36   16   40 1
    37   17   18 1
    38   19   20 am
    39   19   41 1
    40   20   21 2
    41   20   22 1
    42   22   42 1
    43   22   43 1
    44   23   24 1
    45   23   44 1
    46   23   45 1
    47   24   25 1
    48   24   46 1
    49   25   47 1
    50   25   48 1
    51   25   49 1
##########                 Name:            smyd3_334
##########          Protonation:                 none
##########               SMILES:   CC(=O)N1CCC(N(C)C(=O)C2=CC3=C(C=C2Cl)NC(=O)C3)CC1
##########            Long Name:   NO_LONG_NAME
##########          FlexRecCode: 1
##########               Number:                  865
##########   Ligand Source File: /proj/zinc22/users/x_andlu/OGG1/revisions/docking/targets/smyd3/db2gen/split_par
##########                 Rank:                    1
##########               Setnum:                   57
##########             Matchnum:                   15
##########                Cloud:                    1
##########        Electrostatic:           -13.308072
##########                 Gist:             0.000000
##########        Van der Waals:           -33.019012
##########  Ligand Polar Desolv:             8.347170
########## Ligand Apolar Desolv:            -2.385038
##########      Internal Energy:             0.000000
##########      Receptor Energy:             0.000000
########## Receptor Desolvation:             0.000000
########## Receptor Hydrophobic:             0.000000
##########         Total Energy:           -40.364948
##########        Ligand Charge:             0.000000
##########            Arbitrary:    +999.9990
##########        Ligand Energy:             0.000000

@<TRIPOS>MOLECULE
smyd3_334      none
   44    46     0     0     0
SMALL
USER_CHARGES

@<TRIPOS>ATOM
      1 C1         18.7978   -1.5717   18.6610 C.3       1 <0>        -0.1800
      2 C2         17.6631   -1.4199   17.6811 C.2       1 <0>         0.5100
      3 O1         16.8062   -2.2751   17.6081 O.2       1 <0>        -0.5400
      4 N1         17.6003   -0.3334   16.8860 N.am      1 <0>        -0.6200
      5 C3         16.9825   -0.4144   15.5554 C.3       1 <0>         0.1100
      6 C4         15.9068    0.6703   15.4411 C.3       1 <0>        -0.1400
      7 C5         16.5302    2.0332   15.7662 C.3       1 <0>         0.1400
      8 N2         15.5136    3.0789   15.6279 N.am      1 <0>        -0.6100
      9 C6         14.1483    2.7254   15.2314 C.3       1 <0>         0.0700
     10 C7         15.8343    4.3662   15.8654 C.2       1 <0>         0.5700
     11 O2         16.9663    4.7589   15.6585 O.2       1 <0>        -0.5100
     12 C8         14.8119    5.2990   16.3763 C.ar      1 <0>        -0.1500
     13 C9         14.4620    6.4344   15.6380 C.ar      1 <0>        -0.0200
     14 C10        13.5099    7.2959   16.1218 C.ar      1 <0>        -0.1500
     15 C11        12.8818    7.0590   17.3416 C.ar      1 <0>         0.1800
     16 C12        13.2311    5.9258   18.0784 C.ar      1 <0>        -0.1400
     17 C13        14.1807    5.0516   17.6002 C.ar      1 <0>         0.0400
     18 Cl1        14.6017    3.6420   18.5217 Cl        1 <0>        -0.0300
     19 N3         11.9621    8.0670   17.6121 N.am      1 <0>        -0.6600
     20 C14        11.9189    8.9940   16.6408 C.2       1 <0>         0.5300
     21 O3         11.2106    9.9782   16.6156 O.2       1 <0>        -0.4900
     22 C15        12.9197    8.5793   15.5832 C.3       1 <0>        -0.1100
     23 C16        17.0620    2.0255   17.2011 C.3       1 <0>        -0.1400
     24 C17        18.1489    0.9541   17.3329 C.3       1 <0>         0.1100
     25 H1         19.4630   -0.7118   18.5829 H         1 <0>         0.0900
     26 H2         18.3982   -1.6312   19.6733 H         1 <0>         0.0900
     27 H3         19.3531   -2.4823   18.4357 H         1 <0>         0.0900
     28 H4         17.7422   -0.2577   14.7896 H         1 <0>         0.0700
     29 H5         16.5272   -1.3958   15.4229 H         1 <0>         0.1000
     30 H6         15.5078    0.6816   14.4269 H         1 <0>         0.0800
     31 H7         15.1027    0.4610   16.1466 H         1 <0>         0.0700
     32 H8         17.3504    2.2307   15.0760 H         1 <0>         0.1100
     33 H9         13.5391    3.6279   15.1816 H         1 <0>         0.0600
     34 H10        14.1670    2.2453   14.2530 H         1 <0>         0.0800
     35 H11        13.7230    2.0399   15.9645 H         1 <0>         0.0800
     36 H12        14.9397    6.6321   14.6898 H         1 <0>         0.1500
     37 H13        12.7509    5.7319   19.0262 H         1 <0>         0.1500
     38 H14        11.4138    8.0970   18.4116 H         1 <0>         0.4200
     39 H15        13.6938    9.3384   15.4710 H         1 <0>         0.1300
     40 H16        12.4184    8.3998   14.6321 H         1 <0>         0.1300
     41 H17        16.2469    1.8038   17.8900 H         1 <0>         0.0700
     42 H18        17.4836    3.0025   17.4380 H         1 <0>         0.0800
     43 H19        18.4611    0.8765   18.3745 H         1 <0>         0.0900
     44 H20        19.0053    1.2212   16.7138 H         1 <0>         0.0800
@<TRIPOS>BOND
     1    1    2 1
     2    1   25 1
     3    1   26 1
     4    1   27 1
     5    2    3 2
     6    2    4 am
     7    4   24 1
     8    4    5 1
     9    5    6 1
    10    5   28 1
    11    5   29 1
    12    6    7 1
    13    6   30 1
    14    6   31 1
    15    7    8 1
    16    7   23 1
    17    7   32 1
    18    8    9 1
    19    8   10 am
    20    9   33 1
    21    9   34 1
    22    9   35 1
    23   10   11 2
    24   10   12 1
    25   12   17 ar
    26   12   13 ar
    27   13   14 ar
    28   13   36 1
    29   14   22 1
    30   14   15 ar
    31   15   16 ar
    32   15   19 1
    33   16   17 ar
    34   16   37 1
    35   17   18 1
    36   19   20 am
    37   19   38 1
    38   20   21 2
    39   20   22 1
    40   22   39 1
    41   22   40 1
    42   23   24 1
    43   23   41 1
    44   23   42 1
    45   24   43 1
    46   24   44 1
##########                 Name:            smyd3_335
##########          Protonation:                 none
##########               SMILES:   CC(C)[NH+]1CCC(N(C)C(=O)C2=CC3=C(C=C2Cl)NC(=O)C3)CC1
##########            Long Name:   NO_LONG_NAME
##########          FlexRecCode: 1
##########               Number:                  867
##########   Ligand Source File: /proj/zinc22/users/x_andlu/OGG1/revisions/docking/targets/smyd3/db2gen/split_par
##########                 Rank:                    1
##########               Setnum:                   31
##########             Matchnum:                    3
##########                Cloud:                    1
##########        Electrostatic:           -19.687220
##########                 Gist:             0.000000
##########        Van der Waals:           -30.225737
##########  Ligand Polar Desolv:            10.251872
########## Ligand Apolar Desolv:            -2.956635
##########      Internal Energy:             0.000000
##########      Receptor Energy:             0.000000
########## Receptor Desolvation:             0.000000
########## Receptor Hydrophobic:             0.000000
##########         Total Energy:           -42.617718
##########        Ligand Charge:             1.000000
##########            Arbitrary:    +999.9990
##########        Ligand Energy:             0.000000

@<TRIPOS>MOLECULE
smyd3_335      none
   49    51     0     0     0
SMALL
USER_CHARGES

@<TRIPOS>ATOM
      1 C1         19.2477   -1.8676   17.7468 C.3       1 <0>        -0.1800
      2 C2         19.3482   -1.2414   16.3544 C.3       1 <0>         0.0200
      3 C3         19.1552   -2.3257   15.2923 C.3       1 <0>        -0.1800
      4 N1         18.3075   -0.2160   16.2023 N.4       1 <0>        -0.3800
      5 H1         17.3997   -0.6418   16.3159 H         1 <0>         0.4200
      6 C4         18.4023    0.3804   14.8634 C.3       1 <0>        -0.0100
      7 C5         17.2702    1.3918   14.6714 C.3       1 <0>        -0.1600
      8 C6         17.3881    2.4905   15.7317 C.3       1 <0>         0.1300
      9 N2         16.2638    3.4206   15.6004 N.am      1 <0>        -0.6100
     10 C7         14.9736    2.9437   15.0962 C.3       1 <0>         0.0500
     11 C8         16.4165    4.7149   15.9436 C.2       1 <0>         0.5700
     12 O1         17.5036    5.2486   15.8350 O.2       1 <0>        -0.5000
     13 C9         15.2645    5.4842   16.4509 C.ar      1 <0>        -0.1700
     14 C10        14.8231    6.6238   15.7703 C.ar      1 <0>        -0.0400
     15 C11        13.7508    7.3325   16.2503 C.ar      1 <0>        -0.1500
     16 C12        13.0898    6.9356   17.4097 C.ar      1 <0>         0.2000
     17 C13        13.5302    5.7983   18.0890 C.ar      1 <0>        -0.1400
     18 C14        14.6013    5.0762   17.6134 C.ar      1 <0>         0.0500
     19 Cl1        15.1356    3.6595   18.4626 Cl        1 <0>        -0.0200
     20 N3         12.0439    7.8091   17.6892 N.am      1 <0>        -0.6600
     21 C15        11.9440    8.7945   16.7818 C.2       1 <0>         0.5300
     22 O2         11.1266    9.6903   16.7786 O.2       1 <0>        -0.4800
     23 C16        13.0428    8.5765   15.7635 C.3       1 <0>        -0.1100
     24 C17        17.3626    1.8492   17.1222 C.3       1 <0>        -0.1600
     25 C18        18.4912    0.8211   17.2245 C.3       1 <0>        -0.0100
     26 H2         19.3852   -1.0952   18.5034 H         1 <0>         0.1100
     27 H3         18.2661   -2.3253   17.8693 H         1 <0>         0.0800
     28 H4         20.0200   -2.6285   17.8596 H         1 <0>         0.0800
     29 H5         20.3299   -0.7837   16.2319 H         1 <0>         0.1400
     30 H6         19.2268   -1.8796   14.3004 H         1 <0>         0.0800
     31 H7         19.9275   -3.0866   15.4052 H         1 <0>         0.1100
     32 H8         18.1735   -2.7835   15.4149 H         1 <0>         0.0800
     33 H9         18.3212   -0.4026   14.1095 H         1 <0>         0.1400
     34 H10        19.3623    0.8860   14.7590 H         1 <0>         0.1300
     35 H11        16.3097    0.8871   14.7755 H         1 <0>         0.0900
     36 H12        17.3427    1.8351   13.6784 H         1 <0>         0.1200
     37 H13        18.3253    3.0300   15.5949 H         1 <0>         0.1200
     38 H14        14.2656    3.7719   15.0691 H         1 <0>         0.0700
     39 H15        15.1023    2.5425   14.0911 H         1 <0>         0.1000
     40 H16        14.5932    2.1618   15.7536 H         1 <0>         0.0700
     41 H17        15.3248    6.9446   14.8694 H         1 <0>         0.1600
     42 H18        13.0256    5.4810   18.9895 H         1 <0>         0.1500
     43 H19        11.4531    7.7167   18.4531 H         1 <0>         0.4200
     44 H20        13.7265    9.4253   15.7514 H         1 <0>         0.1300
     45 H21        12.6188    8.4119   14.7729 H         1 <0>         0.1300
     46 H22        17.5019    2.6195   17.8808 H         1 <0>         0.1200
     47 H23        16.4037    1.3547   17.2774 H         1 <0>         0.0900
     48 H24        19.4493    1.3174   17.0696 H         1 <0>         0.1300
     49 H25        18.4761    0.3628   18.2133 H         1 <0>         0.1400
@<TRIPOS>BOND
     1    1    2 1
     2    1   26 1
     3    1   27 1
     4    1   28 1
     5    2    3 1
     6    2    4 1
     7    2   29 1
     8    3   30 1
     9    3   31 1
    10    3   32 1
    11    4    5 1
    12    4   25 1
    13    4    6 1
    14    6    7 1
    15    6   33 1
    16    6   34 1
    17    7    8 1
    18    7   35 1
    19    7   36 1
    20    8    9 1
    21    8   24 1
    22    8   37 1
    23    9   10 1
    24    9   11 am
    25   10   38 1
    26   10   39 1
    27   10   40 1
    28   11   12 2
    29   11   13 1
    30   13   18 ar
    31   13   14 ar
    32   14   15 ar
    33   14   41 1
    34   15   23 1
    35   15   16 ar
    36   16   17 ar
    37   16   20 1
    38   17   18 ar
    39   17   42 1
    40   18   19 1
    41   20   21 am
    42   20   43 1
    43   21   22 2
    44   21   23 1
    45   23   44 1
    46   23   45 1
    47   24   25 1
    48   24   46 1
    49   24   47 1
    50   25   48 1
    51   25   49 1
##########                 Name:            smyd3_336
##########          Protonation:                 none
##########               SMILES:   CN(C(=O)C1=CC2=C(C=C1Cl)NC(=O)C2)C1CC[NH+](C2CC2)CC1
##########            Long Name:   NO_LONG_NAME
##########          FlexRecCode: 1
##########               Number:                  868
##########   Ligand Source File: /proj/zinc22/users/x_andlu/OGG1/revisions/docking/targets/smyd3/db2gen/split_par
##########                 Rank:                    1
##########               Setnum:                   15
##########             Matchnum:                    8
##########                Cloud:                    1
##########        Electrostatic:           -15.678902
##########                 Gist:             0.000000
##########        Van der Waals:           -32.372169
##########  Ligand Polar Desolv:            10.355755
########## Ligand Apolar Desolv:            -2.924188
##########      Internal Energy:             0.000000
##########      Receptor Energy:             0.000000
########## Receptor Desolvation:             0.000000
########## Receptor Hydrophobic:             0.000000
##########         Total Energy:           -40.619503
##########        Ligand Charge:             1.000000
##########            Arbitrary:    +999.9990
##########        Ligand Energy:             0.000000

@<TRIPOS>MOLECULE
smyd3_336      none
   47    50     0     0     0
SMALL
USER_CHARGES

@<TRIPOS>ATOM
      1 C1         13.9699    2.7812   15.1810 C.3       1 <0>         0.0600
      2 N1         15.3050    2.9216   15.7675 N.am      1 <0>        -0.6100
      3 C2         15.7587    4.1388   16.1269 C.2       1 <0>         0.5700
      4 O1         16.9500    4.3791   16.0893 O.2       1 <0>        -0.5000
      5 C3         14.8097    5.1796   16.5657 C.ar      1 <0>        -0.1600
      6 C4         14.7187    6.3891   15.8691 C.ar      1 <0>        -0.0200
      7 C5         13.8337    7.3514   16.2857 C.ar      1 <0>        -0.1500
      8 C6         13.0195    7.1443   17.3961 C.ar      1 <0>         0.1900
      9 C7         13.1102    5.9369   18.0911 C.ar      1 <0>        -0.1400
     10 C8         13.9944    4.9645   17.6821 C.ar      1 <0>         0.0500
     11 Cl1        14.0987    3.4672   18.5545 Cl        1 <0>        -0.0300
     12 N2         12.2195    8.2601   17.6199 N.am      1 <0>        -0.6600
     13 C9         12.4293    9.2298   16.7142 C.2       1 <0>         0.5300
     14 O2         11.8699   10.3048   16.6675 O.2       1 <0>        -0.4800
     15 C10        13.4997    8.7314   15.7667 C.3       1 <0>        -0.1100
     16 C11        16.1471    1.7388   15.9635 C.3       1 <0>         0.1300
     17 C12        17.0675    1.9594   17.1675 C.3       1 <0>        -0.1600
     18 C13        18.0000    0.7553   17.3170 C.3       1 <0>        -0.0100
     19 N3         18.8078    0.6014   16.1012 N.4       1 <0>        -0.3500
     20 H1         19.3203    1.4535   15.9292 H         1 <0>         0.4200
     21 C14        19.7540   -0.5078   16.2809 C.3       1 <0>        -0.0800
     22 C15        21.1385   -0.1721   16.8388 C.3       1 <0>        -0.1600
     23 C16        20.9779   -0.5480   15.3636 C.3       1 <0>        -0.1500
     24 C17        17.9350    0.3176   14.9558 C.3       1 <0>         0.0000
     25 C18        17.0015    1.5056   14.7142 C.3       1 <0>        -0.1600
     26 H2         13.7802    1.7316   14.9567 H         1 <0>         0.0700
     27 H3         13.2227    3.1425   15.8877 H         1 <0>         0.0700
     28 H4         13.9134    3.3651   14.2623 H         1 <0>         0.0900
     29 H5         15.3429    6.5650   15.0054 H         1 <0>         0.1500
     30 H6         12.4838    5.7651   18.9538 H         1 <0>         0.1500
     31 H7         11.5803    8.3290   18.3463 H         1 <0>         0.4200
     32 H8         13.1128    8.6739   14.7493 H         1 <0>         0.1300
     33 H9         14.3758    9.3789   15.8052 H         1 <0>         0.1300
     34 H10        15.5165    0.8679   16.1415 H         1 <0>         0.1200
     35 H11        17.6607    2.8606   17.0120 H         1 <0>         0.0900
     36 H12        16.4662    2.0701   18.0699 H         1 <0>         0.1200
     37 H13        17.4058   -0.1450   17.4742 H         1 <0>         0.1400
     38 H14        18.6574    0.9100   18.1724 H         1 <0>         0.1300
     39 H15        19.3116   -1.4606   16.5718 H         1 <0>         0.1800
     40 H16        21.3472    0.8718   17.0725 H         1 <0>         0.1200
     41 H17        21.6071   -0.9041   17.4965 H         1 <0>         0.1300
     42 H18        21.3410   -1.5272   15.0515 H         1 <0>         0.1300
     43 H19        21.0809    0.2484   14.6267 H         1 <0>         0.1200
     44 H20        17.3422   -0.5734   15.1632 H         1 <0>         0.1300
     45 H21        18.5450    0.1490   14.0683 H         1 <0>         0.1400
     46 H22        16.3529    1.2922   13.8645 H         1 <0>         0.1200
     47 H23        17.5932    2.3972   14.5062 H         1 <0>         0.0900
@<TRIPOS>BOND
     1    1    2 1
     2    1   26 1
     3    1   27 1
     4    1   28 1
     5    2    3 am
     6    2   16 1
     7    3    4 2
     8    3    5 1
     9    5   10 ar
    10    5    6 ar
    11    6    7 ar
    12    6   29 1
    13    7   15 1
    14    7    8 ar
    15    8    9 ar
    16    8   12 1
    17    9   10 ar
    18    9   30 1
    19   10   11 1
    20   12   13 am
    21   12   31 1
    22   13   14 2
    23   13   15 1
    24   15   32 1
    25   15   33 1
    26   16   25 1
    27   16   17 1
    28   16   34 1
    29   17   18 1
    30   17   35 1
    31   17   36 1
    32   18   19 1
    33   18   37 1
    34   18   38 1
    35   19   20 1
    36   19   21 1
    37   19   24 1
    38   21   23 1
    39   21   22 1
    40   21   39 1
    41   22   23 1
    42   22   40 1
    43   22   41 1
    44   23   42 1
    45   23   43 1
    46   24   25 1
    47   24   44 1
    48   24   45 1
    49   25   46 1
    50   25   47 1
##########                 Name:            smyd3_339
##########          Protonation:                 none
##########               SMILES:   C[NH+]1CCC(N(CCO)C(=O)C2=CC3=C(C=C2Cl)NC(=O)C3)CC1
##########            Long Name:   NO_LONG_NAME
##########          FlexRecCode: 1
##########               Number:                  882
##########   Ligand Source File: /proj/zinc22/users/x_andlu/OGG1/revisions/docking/targets/smyd3/db2gen/split_par
##########                 Rank:                    1
##########               Setnum:                   26
##########             Matchnum:                    4
##########                Cloud:                    1
##########        Electrostatic:           -17.225010
##########                 Gist:             0.000000
##########        Van der Waals:           -31.141312
##########  Ligand Polar Desolv:             8.263432
########## Ligand Apolar Desolv:            -1.950943
##########      Internal Energy:             0.000000
##########      Receptor Energy:             0.000000
########## Receptor Desolvation:             0.000000
########## Receptor Hydrophobic:             0.000000
##########         Total Energy:           -42.053833
##########        Ligand Charge:             1.000000
##########            Arbitrary:    +999.9990
##########        Ligand Energy:             0.000000

@<TRIPOS>MOLECULE
smyd3_339      none
   47    49     0     0     0
SMALL
USER_CHARGES

@<TRIPOS>ATOM
      1 C1         19.4342   -0.8795   15.5321 C.3       1 <0>        -0.0500
      2 N1         18.6401    0.3563   15.5477 N.4       1 <0>        -0.3900
      3 H1         17.6808    0.1413   15.3209 H         1 <0>         0.4300
      4 C2         18.7023    0.9591   16.8845 C.3       1 <0>         0.0000
      5 C3         17.8118    2.2028   16.9292 C.3       1 <0>        -0.1700
      6 C4         18.3030    3.2132   15.8885 C.3       1 <0>         0.1500
      7 N2         17.4095    4.3742   15.8731 N.am      1 <0>        -0.6000
      8 C5         17.9355    5.7075   16.1757 C.3       1 <0>         0.1000
      9 C6         18.4072    6.3752   14.8824 C.3       1 <0>         0.0600
     10 O1         19.4345    5.5824   14.2841 O.3       1 <0>        -0.5800
     11 C7         16.1034    4.2154   15.5805 C.2       1 <0>         0.5800
     12 O2         15.7515    3.3217   14.8350 O.2       1 <0>        -0.5200
     13 C8         15.1007    5.1261   16.1649 C.ar      1 <0>        -0.1600
     14 C9         14.7394    6.2997   15.4951 C.ar      1 <0>        -0.0300
     15 C10        13.8017    7.1374   16.0442 C.ar      1 <0>        -0.1400
     16 C11        13.1995    6.8388   17.2636 C.ar      1 <0>         0.1900
     17 C12        13.5600    5.6673   17.9320 C.ar      1 <0>        -0.1400
     18 C13        14.4997    4.8196   17.3907 C.ar      1 <0>         0.0400
     19 Cl1        14.9403    3.3660   18.2312 Cl        1 <0>        -0.0300
     20 N3         12.2907    7.8342   17.6072 N.am      1 <0>        -0.6600
     21 C14        12.2303    8.8113   16.6872 C.2       1 <0>         0.5300
     22 O3         11.5263    9.7979   16.7296 O.2       1 <0>        -0.4800
     23 C15        13.2056    8.4495   15.5872 C.3       1 <0>        -0.1200
     24 C16        18.3059    2.5510   14.5077 C.3       1 <0>        -0.1700
     25 C17        19.1766    1.2934   14.5534 C.3       1 <0>         0.0000
     26 H2         20.4708   -0.6484   15.7769 H         1 <0>         0.1200
     27 H3         19.0342   -1.5777   16.2675 H         1 <0>         0.1200
     28 H4         19.3867   -1.3296   14.5404 H         1 <0>         0.1200
     29 H5         19.7311    1.2414   17.1078 H         1 <0>         0.1300
     30 H6         18.3552    0.2375   17.6239 H         1 <0>         0.1300
     31 H7         17.8607    2.6500   17.9221 H         1 <0>         0.1200
     32 H8         16.7824    1.9223   16.7066 H         1 <0>         0.1100
     33 H9         19.3135    3.5344   16.1408 H         1 <0>         0.1100
     34 H10        17.1519    6.3123   16.6321 H         1 <0>         0.0900
     35 H11        18.7746    5.6190   16.8657 H         1 <0>         0.1100
     36 H12        17.5682    6.4638   14.1923 H         1 <0>         0.0600
     37 H13        18.7987    7.3673   15.1076 H         1 <0>         0.0500
     38 H14        20.2139    5.4614   14.8434 H         1 <0>         0.3900
     39 H15        15.1969    6.5456   14.5482 H         1 <0>         0.1500
     40 H16        13.0997    5.4252   18.8784 H         1 <0>         0.1500
     41 H17        11.7604    7.8241   18.4193 H         1 <0>         0.4200
     42 H18        13.9805    9.2108   15.4980 H         1 <0>         0.1300
     43 H19        12.6827    8.3222   14.6395 H         1 <0>         0.1300
     44 H20        17.2873    2.2773   14.2330 H         1 <0>         0.1100
     45 H21        18.7077    3.2468   13.7711 H         1 <0>         0.1100
     46 H22        20.1953    1.5683   14.8264 H         1 <0>         0.1300
     47 H23        19.1795    0.8188   13.5721 H         1 <0>         0.1300
@<TRIPOS>BOND
     1    1    2 1
     2    1   26 1
     3    1   27 1
     4    1   28 1
     5    2    3 1
     6    2   25 1
     7    2    4 1
     8    4    5 1
     9    4   29 1
    10    4   30 1
    11    5    6 1
    12    5   31 1
    13    5   32 1
    14    6    7 1
    15    6   24 1
    16    6   33 1
    17    7    8 1
    18    7   11 am
    19    8    9 1
    20    8   34 1
    21    8   35 1
    22    9   10 1
    23    9   36 1
    24    9   37 1
    25   10   38 1
    26   11   12 2
    27   11   13 1
    28   13   18 ar
    29   13   14 ar
    30   14   15 ar
    31   14   39 1
    32   15   23 1
    33   15   16 ar
    34   16   17 ar
    35   16   20 1
    36   17   18 ar
    37   17   40 1
    38   18   19 1
    39   20   21 am
    40   20   41 1
    41   21   22 2
    42   21   23 1
    43   23   42 1
    44   23   43 1
    45   24   25 1
    46   24   44 1
    47   24   45 1
    48   25   46 1
    49   25   47 1
##########                 Name:            smyd3_341
##########          Protonation:                 none
##########               SMILES:   CCC[NH+]1CCC(N(C)C(=O)C2=CC3=C(C=C2Cl)NC(=O)C3)CC1
##########            Long Name:   NO_LONG_NAME
##########          FlexRecCode: 1
##########               Number:                  886
##########   Ligand Source File: /proj/zinc22/users/x_andlu/OGG1/revisions/docking/targets/smyd3/db2gen/split_par
##########                 Rank:                    1
##########               Setnum:                   87
##########             Matchnum:                    9
##########                Cloud:                    1
##########        Electrostatic:           -18.607199
##########                 Gist:             0.000000
##########        Van der Waals:           -28.167805
##########  Ligand Polar Desolv:             9.807073
########## Ligand Apolar Desolv:            -3.042915
##########      Internal Energy:             0.000000
##########      Receptor Energy:             0.000000
########## Receptor Desolvation:             0.000000
########## Receptor Hydrophobic:             0.000000
##########         Total Energy:           -40.010845
##########        Ligand Charge:             1.000000
##########            Arbitrary:    +999.9990
##########        Ligand Energy:             0.000000

@<TRIPOS>MOLECULE
smyd3_341      none
   49    51     0     0     0
SMALL
USER_CHARGES

@<TRIPOS>ATOM
      1 C1         18.1490   -2.0037   18.7439 C.3       1 <0>        -0.1600
      2 C2         19.4638   -1.4569   18.1845 C.3       1 <0>        -0.1500
      3 C3         19.2794   -1.0948   16.7095 C.3       1 <0>        -0.0100
      4 N1         18.2312   -0.0733   16.5833 N.4       1 <0>        -0.3800
      5 H1         17.4801   -0.2843   17.2231 H         1 <0>         0.4200
      6 C4         18.7922    1.2439   16.9071 C.3       1 <0>        -0.0000
      7 C5         17.6863    2.3002   16.8562 C.3       1 <0>        -0.1600
      8 C6         17.0829    2.3334   15.4490 C.3       1 <0>         0.1300
      9 N2         15.9732    3.2892   15.4143 N.am      1 <0>        -0.6100
     10 C7         14.6253    2.8343   15.0642 C.3       1 <0>         0.0500
     11 C8         16.1923    4.5870   15.7043 C.2       1 <0>         0.5700
     12 O1         17.2736    5.0892   15.4655 O.2       1 <0>        -0.5000
     13 C9         15.1202    5.3983   16.3115 C.ar      1 <0>        -0.1700
     14 C10        14.6349    6.5323   15.6519 C.ar      1 <0>        -0.0400
     15 C11        13.6376    7.2803   16.2248 C.ar      1 <0>        -0.1500
     16 C12        13.0963    6.9290   17.4587 C.ar      1 <0>         0.2000
     17 C13        13.5806    5.7971   18.1170 C.ar      1 <0>        -0.1400
     18 C14        14.5769    5.0360   17.5489 C.ar      1 <0>         0.0500
     19 Cl1        15.1660    3.6265   18.3735 Cl        1 <0>        -0.0200
     20 N3         12.1075    7.8361   17.8252 N.am      1 <0>        -0.6600
     21 C15        11.9336    8.8016   16.9076 C.2       1 <0>         0.5300
     22 O2         11.1418    9.7184   16.9680 O.2       1 <0>        -0.4800
     23 C16        12.9108    8.5303   15.7836 C.3       1 <0>        -0.1100
     24 C17        16.5679    0.9348   15.0928 C.3       1 <0>        -0.1600
     25 C18        17.7154   -0.0708   15.2092 C.3       1 <0>        -0.0100
     26 H2         18.2804   -2.2616   19.7946 H         1 <0>         0.0800
     27 H3         17.3711   -1.2457   18.6502 H         1 <0>         0.0700
     28 H4         17.8584   -2.8932   18.1849 H         1 <0>         0.0700
     29 H5         20.2415   -2.2148   18.2780 H         1 <0>         0.0900
     30 H6         19.7544   -0.5673   18.7433 H         1 <0>         0.0900
     31 H7         18.9889   -1.9844   16.1506 H         1 <0>         0.1300
     32 H8         20.2163   -0.7052   16.3110 H         1 <0>         0.1300
     33 H9         19.5681    1.4956   16.1841 H         1 <0>         0.1300
     34 H10        19.2235    1.2180   17.9080 H         1 <0>         0.1400
     35 H11        16.9100    2.0493   17.5791 H         1 <0>         0.0900
     36 H12        18.1050    3.2774   17.0959 H         1 <0>         0.1200
     37 H13        17.8468    2.6339   14.7320 H         1 <0>         0.1200
     38 H14        13.9380    3.6798   15.0911 H         1 <0>         0.0700
     39 H15        14.6353    2.4058   14.0620 H         1 <0>         0.1000
     40 H16        14.2998    2.0786   15.7792 H         1 <0>         0.0700
     41 H17        15.0440    6.8181   14.6940 H         1 <0>         0.1600
     42 H18        13.1687    5.5151   19.0747 H         1 <0>         0.1500
     43 H19        11.6005    7.7778   18.6501 H         1 <0>         0.4200
     44 H20        13.6089    9.3603   15.6755 H         1 <0>         0.1300
     45 H21        12.3786    8.3532   14.8489 H         1 <0>         0.1300
     46 H22        16.1876    0.9364   14.0714 H         1 <0>         0.1200
     47 H23        15.7682    0.6554   15.7786 H         1 <0>         0.0900
     48 H24        18.5142    0.2089   14.5222 H         1 <0>         0.1300
     49 H25        17.3516   -1.0666   14.9563 H         1 <0>         0.1400
@<TRIPOS>BOND
     1    1    2 1
     2    1   26 1
     3    1   27 1
     4    1   28 1
     5    2    3 1
     6    2   29 1
     7    2   30 1
     8    3    4 1
     9    3   31 1
    10    3   32 1
    11    4    5 1
    12    4   25 1
    13    4    6 1
    14    6    7 1
    15    6   33 1
    16    6   34 1
    17    7    8 1
    18    7   35 1
    19    7   36 1
    20    8    9 1
    21    8   24 1
    22    8   37 1
    23    9   10 1
    24    9   11 am
    25   10   38 1
    26   10   39 1
    27   10   40 1
    28   11   12 2
    29   11   13 1
    30   13   18 ar
    31   13   14 ar
    32   14   15 ar
    33   14   41 1
    34   15   23 1
    35   15   16 ar
    36   16   17 ar
    37   16   20 1
    38   17   18 ar
    39   17   42 1
    40   18   19 1
    41   20   21 am
    42   20   43 1
    43   21   22 2
    44   21   23 1
    45   23   44 1
    46   23   45 1
    47   24   25 1
    48   24   46 1
    49   24   47 1
    50   25   48 1
    51   25   49 1
##########                 Name:            smyd3_342
##########          Protonation:                 none
##########               SMILES:   CN(C(=O)C1=CC2=C(C=C1Cl)NC(=O)C2)C1CC[NH+](CCO)CC1
##########            Long Name:   NO_LONG_NAME
##########          FlexRecCode: 1
##########               Number:                  889
##########   Ligand Source File: /proj/zinc22/users/x_andlu/OGG1/revisions/docking/targets/smyd3/db2gen/split_par
##########                 Rank:                    1
##########               Setnum:                   32
##########             Matchnum:                    1
##########                Cloud:                    1
##########        Electrostatic:           -21.381855
##########                 Gist:             0.000000
##########        Van der Waals:           -30.508682
##########  Ligand Polar Desolv:             9.012742
########## Ligand Apolar Desolv:            -1.419863
##########      Internal Energy:             0.000000
##########      Receptor Energy:             0.000000
########## Receptor Desolvation:             0.000000
########## Receptor Hydrophobic:             0.000000
##########         Total Energy:           -44.297657
##########        Ligand Charge:             1.000000
##########            Arbitrary:    +999.9990
##########        Ligand Energy:             0.000000

@<TRIPOS>MOLECULE
smyd3_342      none
   47    49     0     0     0
SMALL
USER_CHARGES

@<TRIPOS>ATOM
      1 C1         15.0157    2.8936   15.0979 C.3       1 <0>         0.0600
      2 N1         16.2936    3.3705   15.6324 N.am      1 <0>        -0.6100
      3 C2         16.4400    4.6663   15.9731 C.2       1 <0>         0.5700
      4 O1         17.5306    5.1974   15.8896 O.2       1 <0>        -0.5000
      5 C3         15.2771    5.4402   16.4475 C.ar      1 <0>        -0.1600
      6 C4         14.8594    6.5809   15.7540 C.ar      1 <0>        -0.0200
      7 C5         13.7773    7.2946   16.2038 C.ar      1 <0>        -0.1500
      8 C6         13.0831    6.9015   17.3450 C.ar      1 <0>         0.1900
      9 C7         13.4997    5.7628   18.0367 C.ar      1 <0>        -0.1400
     10 C8         14.5840    5.0391   17.5946 C.ar      1 <0>         0.0500
     11 Cl1        15.0932    3.6251   18.4634 Cl        1 <0>        -0.0300
     12 N2         12.0374    7.7832   17.5986 N.am      1 <0>        -0.6600
     13 C9         11.9632    8.7650   16.6848 C.2       1 <0>         0.5300
     14 O2         11.1505    9.6648   16.6589 O.2       1 <0>        -0.4800
     15 C10        13.0884    8.5413   15.6970 C.3       1 <0>        -0.1100
     16 C11        17.4124    2.4390   15.7966 C.3       1 <0>         0.1300
     17 C12        17.7757    1.8309   14.4390 C.3       1 <0>        -0.1600
     18 C13        18.8909    0.8007   14.6298 C.3       1 <0>        -0.0000
     19 N3         18.4329   -0.2594   15.5357 N.4       1 <0>        -0.3800
     20 H1         17.5936   -0.6785   15.1642 H         1 <0>         0.4300
     21 C14        19.4776   -1.2855   15.6543 C.3       1 <0>        -0.0000
     22 C15        18.8571   -2.5889   16.1612 C.3       1 <0>         0.0400
     23 O3         17.8580   -3.0306   15.2399 O.3       1 <0>        -0.5800
     24 C16        18.1509    0.3051   16.8609 C.3       1 <0>        -0.0100
     25 C17        17.0073    1.3161   16.7559 C.3       1 <0>        -0.1600
     26 H2         15.0873    1.8277   14.8818 H         1 <0>         0.0700
     27 H3         14.2285    3.0633   15.8326 H         1 <0>         0.0700
     28 H4         14.7802    3.4350   14.1816 H         1 <0>         0.0900
     29 H5         15.3869    6.8988   14.8668 H         1 <0>         0.1500
     30 H6         12.9690    5.4483   18.9232 H         1 <0>         0.1500
     31 H7         11.4288    7.6970   18.3490 H         1 <0>         0.4200
     32 H8         12.6909    8.3779   14.6954 H         1 <0>         0.1300
     33 H9         13.7747    9.3882   15.7013 H         1 <0>         0.1300
     34 H10        18.2733    2.9711   16.2011 H         1 <0>         0.1200
     35 H11        16.8991    1.3435   14.0120 H         1 <0>         0.0900
     36 H12        18.1185    2.6181   13.7674 H         1 <0>         0.1200
     37 H13        19.7672    1.2891   15.0564 H         1 <0>         0.1300
     38 H14        19.1519    0.3659   13.6649 H         1 <0>         0.1400
     39 H15        19.9328   -1.4551   14.6786 H         1 <0>         0.1400
     40 H16        20.2397   -0.9485   16.3570 H         1 <0>         0.1400
     41 H17        19.6322   -3.3501   16.2493 H         1 <0>         0.1000
     42 H18        18.4020   -2.4193   17.1370 H         1 <0>         0.0700
     43 H19        17.1351   -2.4011   15.1123 H         1 <0>         0.4100
     44 H20        19.0428    0.8040   17.2400 H         1 <0>         0.1300
     45 H21        17.8657   -0.4959   17.5430 H         1 <0>         0.1300
     46 H22        16.8006    1.7356   17.7405 H         1 <0>         0.1200
     47 H23        16.1147    0.8183   16.3771 H         1 <0>         0.0900
@<TRIPOS>BOND
     1    1    2 1
     2    1   26 1
     3    1   27 1
     4    1   28 1
     5    2    3 am
     6    2   16 1
     7    3    4 2
     8    3    5 1
     9    5   10 ar
    10    5    6 ar
    11    6    7 ar
    12    6   29 1
    13    7   15 1
    14    7    8 ar
    15    8    9 ar
    16    8   12 1
    17    9   10 ar
    18    9   30 1
    19   10   11 1
    20   12   13 am
    21   12   31 1
    22   13   14 2
    23   13   15 1
    24   15   32 1
    25   15   33 1
    26   16   25 1
    27   16   17 1
    28   16   34 1
    29   17   18 1
    30   17   35 1
    31   17   36 1
    32   18   19 1
    33   18   37 1
    34   18   38 1
    35   19   20 1
    36   19   21 1
    37   19   24 1
    38   21   22 1
    39   21   39 1
    40   21   40 1
    41   22   23 1
    42   22   41 1
    43   22   42 1
    44   23   43 1
    45   24   25 1
    46   24   44 1
    47   24   45 1
    48   25   46 1
    49   25   47 1
##########                 Name:            smyd3_343
##########          Protonation:                 none
##########               SMILES:   C=CCC1(NC(=O)C2=CC3=C(C=C2Cl)NC(=O)C3)CC[NH+](C)CC1
##########            Long Name:   NO_LONG_NAME
##########          FlexRecCode: 1
##########               Number:                  892
##########   Ligand Source File: /proj/zinc22/users/x_andlu/OGG1/revisions/docking/targets/smyd3/db2gen/split_par
##########                 Rank:                    1
##########               Setnum:                   24
##########             Matchnum:                    8
##########                Cloud:                    1
##########        Electrostatic:           -21.436424
##########                 Gist:             0.000000
##########        Van der Waals:           -33.254158
##########  Ligand Polar Desolv:            10.176052
########## Ligand Apolar Desolv:            -2.760969
##########      Internal Energy:             0.000000
##########      Receptor Energy:             0.000000
########## Receptor Desolvation:             0.000000
########## Receptor Hydrophobic:             0.000000
##########         Total Energy:           -47.275501
##########        Ligand Charge:             1.000000
##########            Arbitrary:    +999.9990
##########        Ligand Energy:             0.000000

@<TRIPOS>MOLECULE
smyd3_343      none
   47    49     0     0     0
SMALL
USER_CHARGES

@<TRIPOS>ATOM
      1 C1         20.9438    4.1321   15.1801 C.2       1 <0>        -0.1700
      2 C2         19.7239    4.5942   15.0590 C.2       1 <0>        -0.1700
      3 C3         18.6362    3.7129   14.5014 C.3       1 <0>        -0.1000
      4 C4         17.9606    2.9517   15.6438 C.3       1 <0>         0.1800
      5 N1         16.9981    3.8278   16.3164 N.am      1 <0>        -0.7300
      6 C5         15.9683    4.3545   15.6248 C.2       1 <0>         0.5700
      7 O1         15.8379    4.1025   14.4423 O.2       1 <0>        -0.5000
      8 C6         14.9991    5.2366   16.3021 C.ar      1 <0>        -0.1700
      9 C7         14.8239    6.5551   15.8691 C.ar      1 <0>        -0.0200
     10 C8         13.9158    7.3659   16.5020 C.ar      1 <0>        -0.1500
     11 C9         13.1689    6.9007   17.5811 C.ar      1 <0>         0.2000
     12 C10        13.3480    5.5865   18.0168 C.ar      1 <0>        -0.1400
     13 C11        14.2523    4.7626   17.3861 C.ar      1 <0>         0.0600
     14 Cl1        14.4664    3.1302   17.9368 Cl        1 <0>        -0.0100
     15 N2         12.3279    7.9040   18.0514 N.am      1 <0>        -0.6600
     16 C12        12.4524    9.0448   17.3531 C.2       1 <0>         0.5300
     17 O2         11.8442   10.0764   17.5447 O.2       1 <0>        -0.4800
     18 C13        13.4948    8.8013   16.2825 C.3       1 <0>        -0.1100
     19 C14        19.0201    2.4886   16.6478 C.3       1 <0>        -0.1600
     20 C15        18.3479    1.6608   17.7452 C.3       1 <0>        -0.0100
     21 N3         17.6927    0.4907   17.1483 N.4       1 <0>        -0.3800
     22 H1         18.3730   -0.0486   16.6340 H         1 <0>         0.4300
     23 C16        17.1159   -0.3415   18.2125 C.3       1 <0>        -0.0500
     24 C17        16.6269    0.9269   16.2382 C.3       1 <0>        -0.0100
     25 C18        17.2329    1.7266   15.0829 C.3       1 <0>        -0.1500
     26 H2         21.7233    4.7638   15.5798 H         1 <0>         0.1000
     27 H3         21.1699    3.1195   14.8803 H         1 <0>         0.1000
     28 H4         19.4978    5.6068   15.3589 H         1 <0>         0.1100
     29 H5         19.0695    3.0022   13.7976 H         1 <0>         0.1000
     30 H6         17.8975    4.3283   13.9878 H         1 <0>         0.0800
     31 H7         17.1021    4.0287   17.2597 H         1 <0>         0.4000
     32 H8         15.3986    6.9324   15.0362 H         1 <0>         0.1400
     33 H9         12.7740    5.2146   18.8526 H         1 <0>         0.1500
     34 H10        11.7203    7.7923   18.7992 H         1 <0>         0.4200
     35 H11        13.0598    8.9246   15.2907 H         1 <0>         0.1300
     36 H12        14.3419    9.4746   16.4137 H         1 <0>         0.1300
     37 H13        19.5044    3.3579   17.0927 H         1 <0>         0.1300
     38 H14        19.7645    1.8787   16.1359 H         1 <0>         0.1000
     39 H15        19.0995    1.3297   18.4618 H         1 <0>         0.1300
     40 H16        17.6039    2.2718   18.2563 H         1 <0>         0.1300
     41 H17        16.6290   -1.2109   17.7704 H         1 <0>         0.1200
     42 H18        17.9076   -0.6715   18.8852 H         1 <0>         0.1200
     43 H19        16.3830    0.2401   18.7718 H         1 <0>         0.1200
     44 H20        15.9196    1.5535   16.7817 H         1 <0>         0.1200
     45 H21        16.1079    0.0539   15.8423 H         1 <0>         0.1400
     46 H22        16.4398    2.0510   14.4093 H         1 <0>         0.1200
     47 H23        17.9402    1.1007   14.5387 H         1 <0>         0.1100
@<TRIPOS>BOND
     1    1    2 2
     2    1   26 1
     3    1   27 1
     4    2    3 1
     5    2   28 1
     6    3    4 1
     7    3   29 1
     8    3   30 1
     9    4   25 1
    10    4    5 1
    11    4   19 1
    12    5    6 am
    13    5   31 1
    14    6    7 2
    15    6    8 1
    16    8   13 ar
    17    8    9 ar
    18    9   10 ar
    19    9   32 1
    20   10   18 1
    21   10   11 ar
    22   11   12 ar
    23   11   15 1
    24   12   13 ar
    25   12   33 1
    26   13   14 1
    27   15   16 am
    28   15   34 1
    29   16   17 2
    30   16   18 1
    31   18   35 1
    32   18   36 1
    33   19   20 1
    34   19   37 1
    35   19   38 1
    36   20   21 1
    37   20   39 1
    38   20   40 1
    39   21   22 1
    40   21   23 1
    41   21   24 1
    42   23   41 1
    43   23   42 1
    44   23   43 1
    45   24   25 1
    46   24   44 1
    47   24   45 1
    48   25   46 1
    49   25   47 1
##########                 Name:            smyd3_344
##########          Protonation:                 none
##########               SMILES:   CC(=O)N1CCC(C)(NC(=O)C2=CC3=C(C=C2Cl)NC(=O)C3)CC1
##########            Long Name:   NO_LONG_NAME
##########          FlexRecCode: 1
##########               Number:                  894
##########   Ligand Source File: /proj/zinc22/users/x_andlu/OGG1/revisions/docking/targets/smyd3/db2gen/split_par
##########                 Rank:                    1
##########               Setnum:                   17
##########             Matchnum:                   10
##########                Cloud:                    1
##########        Electrostatic:           -16.739193
##########                 Gist:             0.000000
##########        Van der Waals:           -31.866554
##########  Ligand Polar Desolv:             6.575833
########## Ligand Apolar Desolv:            -2.000105
##########      Internal Energy:             0.000000
##########      Receptor Energy:             0.000000
########## Receptor Desolvation:             0.000000
########## Receptor Hydrophobic:             0.000000
##########         Total Energy:           -44.030022
##########        Ligand Charge:             0.000000
##########            Arbitrary:    +999.9990
##########        Ligand Energy:             0.000000

@<TRIPOS>MOLECULE
smyd3_344      none
   44    46     0     0     0
SMALL
USER_CHARGES

@<TRIPOS>ATOM
      1 C1         16.4583   -1.5087   17.7492 C.3       1 <0>        -0.1800
      2 C2         17.6360   -0.5685   17.7435 C.2       1 <0>         0.5100
      3 O1         18.7174   -0.9486   18.1395 O.2       1 <0>        -0.5500
      4 N1         17.4873    0.6950   17.2985 N.am      1 <0>        -0.6100
      5 C3         18.3148    1.7816   17.8399 C.3       1 <0>         0.1100
      6 C4         18.9958    2.5094   16.6766 C.3       1 <0>        -0.1400
      7 C5         17.9334    2.9678   15.6748 C.3       1 <0>         0.1800
      8 C6         18.6066    3.7249   14.5284 C.3       1 <0>        -0.1600
      9 N2         16.9768    3.8504   16.3475 N.am      1 <0>        -0.7200
     10 C7         15.9469    4.3786   15.6573 C.2       1 <0>         0.5600
     11 O2         15.8114    4.1227   14.4764 O.2       1 <0>        -0.5100
     12 C8         14.9837    5.2674   16.3347 C.ar      1 <0>        -0.1600
     13 C9         14.8082    6.5831   15.8935 C.ar      1 <0>        -0.0200
     14 C10        13.9096    7.4019   16.5298 C.ar      1 <0>        -0.1500
     15 C11        13.1647    6.9440   17.6135 C.ar      1 <0>         0.1900
     16 C12        13.3400    5.6308   18.0537 C.ar      1 <0>        -0.1400
     17 C13        14.2386    4.8006   17.4230 C.ar      1 <0>         0.0500
     18 Cl1        14.4429    3.1674   17.9749 Cl        1 <0>        -0.0100
     19 N3         12.3301    7.9527   18.0832 N.am      1 <0>        -0.6600
     20 C14        12.4569    9.0904   17.3801 C.2       1 <0>         0.5300
     21 O3         11.8537   10.1252   17.5698 O.2       1 <0>        -0.4900
     22 C15        13.4941    8.8382   16.3065 C.3       1 <0>        -0.1100
     23 C16        17.1964    1.7481   15.1170 C.3       1 <0>        -0.1500
     24 C17        16.4950    1.0118   16.2623 C.3       1 <0>         0.1100
     25 H1         15.5799   -0.9932   17.3608 H         1 <0>         0.0900
     26 H2         16.6798   -2.3721   17.1218 H         1 <0>         0.0900
     27 H3         16.2634   -1.8410   18.7688 H         1 <0>         0.0900
     28 H4         19.0722    1.3673   18.5052 H         1 <0>         0.1000
     29 H5         17.6852    2.4810   18.3901 H         1 <0>         0.0600
     30 H6         19.6935    1.8330   16.1829 H         1 <0>         0.0900
     31 H7         19.5363    3.3766   17.0558 H         1 <0>         0.0800
     32 H8         17.8500    4.0515   13.8150 H         1 <0>         0.0600
     33 H9         19.1307    4.5942   14.9255 H         1 <0>         0.0600
     34 H10        19.3186    3.0685   14.0281 H         1 <0>         0.0800
     35 H11        17.0850    4.0545   17.2896 H         1 <0>         0.4000
     36 H12        15.3780    6.9534   15.0541 H         1 <0>         0.1400
     37 H13        12.7678    5.2645   18.8933 H         1 <0>         0.1500
     38 H14        11.7245    7.8466   18.8335 H         1 <0>         0.4200
     39 H15        14.3458    9.5066   16.4334 H         1 <0>         0.1300
     40 H16        13.0560    8.9597   15.3159 H         1 <0>         0.1300
     41 H17        16.4557    2.0733   14.3863 H         1 <0>         0.1000
     42 H18        17.9111    1.0789   14.6379 H         1 <0>         0.0800
     43 H19        16.0517    0.0896   15.8867 H         1 <0>         0.0900
     44 H20        15.7156    1.6463   16.6845 H         1 <0>         0.0700
@<TRIPOS>BOND
     1    1    2 1
     2    1   25 1
     3    1   26 1
     4    1   27 1
     5    2    3 2
     6    2    4 am
     7    4   24 1
     8    4    5 1
     9    5    6 1
    10    5   28 1
    11    5   29 1
    12    6    7 1
    13    6   30 1
    14    6   31 1
    15    7    8 1
    16    7    9 1
    17    7   23 1
    18    8   32 1
    19    8   33 1
    20    8   34 1
    21    9   10 am
    22    9   35 1
    23   10   11 2
    24   10   12 1
    25   12   17 ar
    26   12   13 ar
    27   13   14 ar
    28   13   36 1
    29   14   22 1
    30   14   15 ar
    31   15   16 ar
    32   15   19 1
    33   16   17 ar
    34   16   37 1
    35   17   18 1
    36   19   20 am
    37   19   38 1
    38   20   21 2
    39   20   22 1
    40   22   39 1
    41   22   40 1
    42   23   24 1
    43   23   41 1
    44   23   42 1
    45   24   43 1
    46   24   44 1
##########                 Name:            smyd3_345
##########          Protonation:                 none
##########               SMILES:   CN1CCC(CCO)(NC(=O)C2=CC3=C(C=C2Cl)NC(=O)C3)CC1
##########            Long Name:   NO_LONG_NAME
##########          FlexRecCode: 1
##########               Number:                  896
##########   Ligand Source File: /proj/zinc22/users/x_andlu/OGG1/revisions/docking/targets/smyd3/db2gen/split_par
##########                 Rank:                    1
##########               Setnum:                   49
##########             Matchnum:                    2
##########                Cloud:                    1
##########        Electrostatic:           -20.867256
##########                 Gist:             0.000000
##########        Van der Waals:           -33.399944
##########  Ligand Polar Desolv:             6.515019
########## Ligand Apolar Desolv:            -0.792301
##########      Internal Energy:             0.000000
##########      Receptor Energy:             0.000000
########## Receptor Desolvation:             0.000000
########## Receptor Hydrophobic:             0.000000
##########         Total Energy:           -48.544483
##########        Ligand Charge:             0.000000
##########            Arbitrary:    +999.9990
##########        Ligand Energy:             0.000000

@<TRIPOS>MOLECULE
smyd3_345      none
   46    48     0     0     0
SMALL
USER_CHARGES

@<TRIPOS>ATOM
      1 C1         16.6558   -0.3420   18.2223 C.3       1 <0>         0.0200
      2 N1         17.3189    0.5248   17.2392 N.3       1 <0>        -0.5400
      3 C2         18.0141    1.6359   17.9013 C.3       1 <0>         0.0600
      4 C3         18.8106    2.4314   16.8645 C.3       1 <0>        -0.1300
      5 C4         17.8548    2.9675   15.7953 C.3       1 <0>         0.1900
      6 C5         18.6527    3.7136   14.7238 C.3       1 <0>        -0.1300
      7 C6         19.6560    2.7569   14.0766 C.3       1 <0>         0.0800
      8 O1         20.4012    3.4536   13.0760 O.3       1 <0>        -0.5700
      9 N2         16.8915    3.8818   16.4136 N.am      1 <0>        -0.7200
     10 C7         15.9475    4.4777   15.6585 C.2       1 <0>         0.5600
     11 O2         15.8953    4.2564   14.4641 O.2       1 <0>        -0.5000
     12 C8         14.9774    5.3983   16.2813 C.ar      1 <0>        -0.1500
     13 C9         14.9021    6.7310   15.8634 C.ar      1 <0>        -0.0200
     14 C10        13.9962    7.5793   16.4485 C.ar      1 <0>        -0.1500
     15 C11        13.1451    7.1349   17.4569 C.ar      1 <0>         0.1900
     16 C12        13.2203    5.8046   17.8740 C.ar      1 <0>        -0.1400
     17 C13        14.1253    4.9447   17.2941 C.ar      1 <0>         0.0500
     18 Cl1        14.2048    3.2910   17.8160 Cl        1 <0>        -0.0100
     19 N3         12.3255    8.1735   17.8861 N.am      1 <0>        -0.6600
     20 C14        12.5637    9.3192   17.2264 C.2       1 <0>         0.5300
     21 O3         11.9982   10.3786   17.3957 O.2       1 <0>        -0.4900
     22 C15        13.6704    9.0396   16.2320 C.3       1 <0>        -0.1100
     23 C16        17.1081    1.7950   15.1533 C.3       1 <0>        -0.1200
     24 C17        16.3609    1.0172   16.2410 C.3       1 <0>         0.0500
     25 H1         17.3880   -0.6927   18.9497 H         1 <0>         0.0200
     26 H2         15.8753    0.2204   18.7348 H         1 <0>         0.0700
     27 H3         16.2123   -1.1970   17.7122 H         1 <0>         0.0700
     28 H4         18.6938    1.2408   18.6563 H         1 <0>         0.0800
     29 H5         17.2830    2.2895   18.3771 H         1 <0>         0.0300
     30 H6         19.5512    1.7817   16.3978 H         1 <0>         0.0800
     31 H7         19.3141    3.2652   17.3537 H         1 <0>         0.0900
     32 H8         17.9714    4.0948   13.9632 H         1 <0>         0.1000
     33 H9         19.1874    4.5453   15.1824 H         1 <0>         0.0800
     34 H10        20.3371    2.3755   14.8373 H         1 <0>         0.0400
     35 H11        19.1212    1.9251   13.6181 H         1 <0>         0.0400
     36 H12        21.0580    2.9071   12.6229 H         1 <0>         0.3800
     37 H13        16.9334    4.0584   17.3665 H         1 <0>         0.3900
     38 H14        15.5550    7.0913   15.0821 H         1 <0>         0.1400
     39 H15        12.5652    5.4485   18.6553 H         1 <0>         0.1500
     40 H16        11.6571    8.0809   18.5830 H         1 <0>         0.4200
     41 H17        14.5406    9.6609   16.4440 H         1 <0>         0.1300
     42 H18        13.3199    9.2060   15.2134 H         1 <0>         0.1300
     43 H19        16.3956    2.1746   14.4208 H         1 <0>         0.0800
     44 H20        17.8218    1.1353   14.6597 H         1 <0>         0.0900
     45 H21        15.8397    0.1727   15.7902 H         1 <0>         0.0800
     46 H22        15.6377    1.6740   16.7247 H         1 <0>         0.0300
@<TRIPOS>BOND
     1    1    2 1
     2    1   25 1
     3    1   26 1
     4    1   27 1
     5    2   24 1
     6    2    3 1
     7    3    4 1
     8    3   28 1
     9    3   29 1
    10    4    5 1
    11    4   30 1
    12    4   31 1
    13    5    6 1
    14    5    9 1
    15    5   23 1
    16    6    7 1
    17    6   32 1
    18    6   33 1
    19    7    8 1
    20    7   34 1
    21    7   35 1
    22    8   36 1
    23    9   10 am
    24    9   37 1
    25   10   11 2
    26   10   12 1
    27   12   17 ar
    28   12   13 ar
    29   13   14 ar
    30   13   38 1
    31   14   22 1
    32   14   15 ar
    33   15   16 ar
    34   15   19 1
    35   16   17 ar
    36   16   39 1
    37   17   18 1
    38   19   20 am
    39   19   40 1
    40   20   21 2
    41   20   22 1
    42   22   41 1
    43   22   42 1
    44   23   24 1
    45   23   43 1
    46   23   44 1
    47   24   45 1
    48   24   46 1
##########                 Name:            smyd3_347
##########          Protonation:                 none
##########               SMILES:   CC[NH+]1CC2CCC(C1)C2NC(=O)C1=CC2=C(C=C1Cl)NC(=O)C2
##########            Long Name:   NO_LONG_NAME
##########          FlexRecCode: 1
##########               Number:                  901
##########   Ligand Source File: /proj/zinc22/users/x_andlu/OGG1/revisions/docking/targets/smyd3/db2gen/split_par
##########                 Rank:                    1
##########               Setnum:                   13
##########             Matchnum:                    2
##########                Cloud:                    1
##########        Electrostatic:           -18.098618
##########                 Gist:             0.000000
##########        Van der Waals:           -32.962875
##########  Ligand Polar Desolv:            10.023474
########## Ligand Apolar Desolv:            -2.825047
##########      Internal Energy:             0.000000
##########      Receptor Energy:             0.000000
########## Receptor Desolvation:             0.000000
########## Receptor Hydrophobic:             0.000000
##########         Total Energy:           -43.863064
##########        Ligand Charge:             1.000000
##########            Arbitrary:    +999.9990
##########        Ligand Energy:             0.000000

@<TRIPOS>MOLECULE
smyd3_347      none
   47    50     0     0     0
SMALL
USER_CHARGES

@<TRIPOS>ATOM
      1 C1         16.1751   -1.0144   18.1307 C.3       1 <0>        -0.1900
      2 C2         17.0725    0.1962   18.3956 C.3       1 <0>        -0.0100
      3 N1         17.6503    0.6639   17.1285 N.4       1 <0>        -0.3800
      4 H1         18.1960   -0.0794   16.7191 H         1 <0>         0.4200
      5 C3         16.5655    1.0276   16.2097 C.3       1 <0>        -0.0100
      6 C4         17.1710    1.5386   14.8896 C.3       1 <0>        -0.1100
      7 C5         18.3186    0.5730   14.5087 C.3       1 <0>        -0.1400
      8 C6         19.5649    1.0740   15.2619 C.3       1 <0>        -0.1500
      9 C7         19.1105    2.3183   16.0617 C.3       1 <0>        -0.1200
     10 C8         18.5233    1.8135   17.3924 C.3       1 <0>        -0.0100
     11 C9         17.9127    2.8593   15.2337 C.3       1 <0>         0.1400
     12 N2         17.0690    3.7435   16.0416 N.am      1 <0>        -0.7400
     13 C10        15.9305    4.2461   15.5245 C.2       1 <0>         0.5700
     14 O1         15.6036    3.9659   14.3873 O.2       1 <0>        -0.4900
     15 C11        15.0808    5.1366   16.3379 C.ar      1 <0>        -0.1700
     16 C12        14.8103    6.4396   15.9071 C.ar      1 <0>        -0.0200
     17 C13        14.0187    7.2599   16.6706 C.ar      1 <0>        -0.1500
     18 C14        13.4760    6.8172   17.8726 C.ar      1 <0>         0.2000
     19 C15        13.7461    5.5156   18.3035 C.ar      1 <0>        -0.1400
     20 C16        14.5349    4.6823   17.5433 C.ar      1 <0>         0.0600
     21 Cl1        14.8580    3.0648   18.0845 Cl        1 <0>        -0.0100
     22 N3         12.7164    7.8239   18.4587 N.am      1 <0>        -0.6600
     23 C17        12.7031    8.9474   17.7224 C.2       1 <0>         0.5300
     24 O2         12.1236    9.9781   17.9917 O.2       1 <0>        -0.4800
     25 C18        13.5471    8.6853   16.4932 C.3       1 <0>        -0.1100
     26 H2         15.7464   -1.3615   19.0708 H         1 <0>         0.0800
     27 H3         16.7661   -1.8138   17.6838 H         1 <0>         0.1100
     28 H4         15.3736   -0.7303   17.4488 H         1 <0>         0.0800
     29 H5         16.4815    0.9957   18.8425 H         1 <0>         0.1300
     30 H6         17.8741   -0.0879   19.0774 H         1 <0>         0.1300
     31 H7         15.9475    0.1519   16.0111 H         1 <0>         0.1400
     32 H8         15.9552    1.8111   16.6586 H         1 <0>         0.1200
     33 H9         16.4362    1.6591   14.0936 H         1 <0>         0.1400
     34 H10        18.4930    0.6032   13.4331 H         1 <0>         0.1000
     35 H11        18.0749   -0.4426   14.8205 H         1 <0>         0.0800
     36 H12        20.3465    1.3483   14.5533 H         1 <0>         0.1000
     37 H13        19.9277    0.3030   15.9416 H         1 <0>         0.0800
     38 H14        19.9087    3.0472   16.2020 H         1 <0>         0.1400
     39 H15        17.9451    2.6100   17.8608 H         1 <0>         0.1300
     40 H16        19.3330    1.5110   18.0565 H         1 <0>         0.1300
     41 H17        18.2557    3.3641   14.3306 H         1 <0>         0.1200
     42 H18        17.3297    3.9670   16.9488 H         1 <0>         0.3900
     43 H19        15.2237    6.7991   14.9764 H         1 <0>         0.1300
     44 H20        13.3312    5.1605   19.2354 H         1 <0>         0.1500
     45 H21        12.2487    7.7262   19.3029 H         1 <0>         0.4200
     46 H22        14.3966    9.3676   16.4604 H         1 <0>         0.1300
     47 H23        12.9453    8.7790   15.5893 H         1 <0>         0.1300
@<TRIPOS>BOND
     1    1    2 1
     2    1   26 1
     3    1   27 1
     4    1   28 1
     5    2    3 1
     6    2   29 1
     7    2   30 1
     8    3    4 1
     9    3   10 1
    10    3    5 1
    11    5    6 1
    12    5   31 1
    13    5   32 1
    14    6   11 1
    15    6    7 1
    16    6   33 1
    17    7    8 1
    18    7   34 1
    19    7   35 1
    20    8    9 1
    21    8   36 1
    22    8   37 1
    23    9   10 1
    24    9   11 1
    25    9   38 1
    26   10   39 1
    27   10   40 1
    28   11   12 1
    29   11   41 1
    30   12   13 am
    31   12   42 1
    32   13   14 2
    33   13   15 1
    34   15   20 ar
    35   15   16 ar
    36   16   17 ar
    37   16   43 1
    38   17   25 1
    39   17   18 ar
    40   18   19 ar
    41   18   22 1
    42   19   20 ar
    43   19   44 1
    44   20   21 1
    45   22   23 am
    46   22   45 1
    47   23   24 2
    48   23   25 1
    49   25   46 1
    50   25   47 1
##########                 Name:            smyd3_348
##########          Protonation:                 none
##########               SMILES:   O=C1CC2=CC(C(=O)NC3C4CC5CC3C[NH+](C5)C4)=C(Cl)C=C2N1
##########            Long Name:   NO_LONG_NAME
##########          FlexRecCode: 1
##########               Number:                  904
##########   Ligand Source File: /proj/zinc22/users/x_andlu/OGG1/revisions/docking/targets/smyd3/db2gen/split_par
##########                 Rank:                    1
##########               Setnum:                    4
##########             Matchnum:                   20
##########                Cloud:                    1
##########        Electrostatic:           -31.438805
##########                 Gist:             0.000000
##########        Van der Waals:           -24.125217
##########  Ligand Polar Desolv:            11.772287
########## Ligand Apolar Desolv:            -2.440305
##########      Internal Energy:             0.000000
##########      Receptor Energy:             0.000000
########## Receptor Desolvation:             0.000000
########## Receptor Hydrophobic:             0.000000
##########         Total Energy:           -46.232037
##########        Ligand Charge:             1.000000
##########            Arbitrary:    +999.9990
##########        Ligand Energy:             0.000000

@<TRIPOS>MOLECULE
smyd3_348      none
   45    49     0     0     0
SMALL
USER_CHARGES

@<TRIPOS>ATOM
      1 O1         11.9573    9.5511   18.4899 O.2       1 <0>        -0.4800
      2 C1         12.5757    8.6009   18.0591 C.2       1 <0>         0.5300
      3 C2         13.7727    8.6523   17.1336 C.3       1 <0>        -0.1100
      4 C3         14.1352    7.1996   16.9237 C.ar      1 <0>        -0.1500
      5 C4         15.1192    6.5820   16.1946 C.ar      1 <0>        -0.0200
      6 C5         15.2101    5.1858   16.1913 C.ar      1 <0>        -0.1700
      7 C6         16.2643    4.5115   15.4101 C.2       1 <0>         0.5700
      8 O2         16.3249    4.6709   14.2062 O.2       1 <0>        -0.5000
      9 N1         17.1601    3.7186   16.0309 N.am      1 <0>        -0.7300
     10 C7         18.2069    3.0488   15.2550 C.3       1 <0>         0.1500
     11 C8         19.4500    2.8553   16.1300 C.3       1 <0>        -0.1200
     12 C9         19.0691    2.0276   17.3621 C.3       1 <0>        -0.1300
     13 C10        18.5676    0.6554   16.9005 C.3       1 <0>        -0.1100
     14 C11        17.3247    0.8448   16.0254 C.3       1 <0>        -0.1300
     15 C12        17.7064    1.6754   14.7960 C.3       1 <0>        -0.1200
     16 C13        18.8292    0.9613   14.0394 C.3       1 <0>         0.0000
     17 N2         19.9958    0.7971   14.9092 N.4       1 <0>        -0.3800
     18 H1         20.7170    0.3206   14.3885 H         1 <0>         0.4300
     19 C14        19.6618   -0.0249   16.0740 C.3       1 <0>        -0.0000
     20 C15        20.5268    2.1094   15.3387 C.3       1 <0>         0.0100
     21 C16        14.2902    4.4341   16.9297 C.ar      1 <0>         0.0600
     22 Cl1        14.3892    2.7008   16.9280 Cl        1 <0>        -0.0100
     23 C17        13.3103    5.0650   17.6628 C.ar      1 <0>        -0.1400
     24 C18        13.2191    6.4576   17.6656 C.ar      1 <0>         0.2000
     25 N3         12.3266    7.3057   18.3130 N.am      1 <0>        -0.6600
     26 H2         14.5972    9.1877   17.6046 H         1 <0>         0.1300
     27 H3         13.5038    9.1197   16.1864 H         1 <0>         0.1300
     28 H4         15.8217    7.1717   15.6244 H         1 <0>         0.1400
     29 H5         17.1116    3.5914   16.9913 H         1 <0>         0.4000
     30 H6         18.4631    3.6537   14.3852 H         1 <0>         0.1100
     31 H7         19.8323    3.8264   16.4443 H         1 <0>         0.1300
     32 H8         19.9428    1.9010   18.0014 H         1 <0>         0.0900
     33 H9         18.2820    2.5388   17.9164 H         1 <0>         0.0900
     34 H10        18.3159    0.0458   17.7684 H         1 <0>         0.1200
     35 H11        16.9505   -0.1282   15.7068 H         1 <0>         0.0900
     36 H12        16.5542    1.3662   16.5933 H         1 <0>         0.0900
     37 H13        16.8392    1.7877   14.1453 H         1 <0>         0.1200
     38 H14        18.4799   -0.0188   13.7144 H         1 <0>         0.1300
     39 H15        19.1106    1.5521   13.1677 H         1 <0>         0.1300
     40 H16        20.5511   -0.1570   16.6904 H         1 <0>         0.1300
     41 H17        19.3084   -1.0000   15.7390 H         1 <0>         0.1300
     42 H18        20.7970    2.6919   14.4580 H         1 <0>         0.1300
     43 H19        21.4083    1.9752   15.9656 H         1 <0>         0.1400
     44 H20        12.6058    4.4792   18.2345 H         1 <0>         0.1500
     45 H21        11.6055    6.9964   18.8834 H         1 <0>         0.4200
@<TRIPOS>BOND
     1    1    2 2
     2    2   25 am
     3    2    3 1
     4    3    4 1
     5    3   26 1
     6    3   27 1
     7    4   24 ar
     8    4    5 ar
     9    5    6 ar
    10    5   28 1
    11    6    7 1
    12    6   21 ar
    13    7    8 2
    14    7    9 am
    15    9   10 1
    16    9   29 1
    17   10   15 1
    18   10   11 1
    19   10   30 1
    20   11   20 1
    21   11   12 1
    22   11   31 1
    23   12   13 1
    24   12   32 1
    25   12   33 1
    26   13   19 1
    27   13   14 1
    28   13   34 1
    29   14   15 1
    30   14   35 1
    31   14   36 1
    32   15   16 1
    33   15   37 1
    34   16   17 1
    35   16   38 1
    36   16   39 1
    37   17   18 1
    38   17   19 1
    39   17   20 1
    40   19   40 1
    41   19   41 1
    42   20   42 1
    43   20   43 1
    44   21   22 1
    45   21   23 ar
    46   23   24 ar
    47   23   44 1
    48   24   25 1
    49   25   45 1
##########                 Name:            smyd3_349
##########          Protonation:                 none
##########               SMILES:   CC1(C)CC(NC(=O)C2=CC3=C(C=C2Cl)NC(=O)C3)CC(C)(C)[NH2+]1
##########            Long Name:   NO_LONG_NAME
##########          FlexRecCode: 1
##########               Number:                  906
##########   Ligand Source File: /proj/zinc22/users/x_andlu/OGG1/revisions/docking/targets/smyd3/db2gen/split_par
##########                 Rank:                    1
##########               Setnum:                    3
##########             Matchnum:                    4
##########                Cloud:                    1
##########        Electrostatic:           -30.174128
##########                 Gist:             0.000000
##########        Van der Waals:           -26.947144
##########  Ligand Polar Desolv:             9.829054
########## Ligand Apolar Desolv:            -2.092861
##########      Internal Energy:             0.000000
##########      Receptor Energy:             0.000000
########## Receptor Desolvation:             0.000000
########## Receptor Hydrophobic:             0.000000
##########         Total Energy:           -49.385075
##########        Ligand Charge:             1.000000
##########            Arbitrary:    +999.9990
##########        Ligand Energy:             0.000000

@<TRIPOS>MOLECULE
smyd3_349      none
   49    51     0     0     0
SMALL
USER_CHARGES

@<TRIPOS>ATOM
      1 C1         20.8675    3.3813   14.1205 C.3       1 <0>        -0.1800
      2 C2         20.5811    2.8760   15.5385 C.3       1 <0>         0.0600
      3 C3         21.8816    3.0573   16.3553 C.3       1 <0>        -0.1800
      4 C4         19.5099    3.7447   16.1892 C.3       1 <0>        -0.1400
      5 C5         18.1346    3.4249   15.6041 C.3       1 <0>         0.1400
      6 N1         17.1203    4.2492   16.2733 N.am      1 <0>        -0.7300
      7 C6         16.0009    4.6076   15.6138 C.2       1 <0>         0.5700
      8 O1         15.8308    4.2483   14.4647 O.2       1 <0>        -0.5100
      9 C7         14.9820    5.4360   16.2861 C.ar      1 <0>        -0.1700
     10 C8         14.6364    6.6877   15.7663 C.ar      1 <0>        -0.0200
     11 C9         13.6875    7.4507   16.3989 C.ar      1 <0>        -0.1500
     12 C10        13.0586    6.9987   17.5560 C.ar      1 <0>         0.2000
     13 C11        13.4041    5.7497   18.0752 C.ar      1 <0>        -0.1400
     14 C12        14.3553    4.9760   17.4493 C.ar      1 <0>         0.0600
     15 Cl1        14.7773    3.4248   18.1045 Cl        1 <0>        -0.0100
     16 N2         12.1424    7.9439   18.0053 N.am      1 <0>        -0.6600
     17 C13        12.1022    9.0319   17.2183 C.2       1 <0>         0.5300
     18 O2         11.3972   10.0065   17.3724 O.2       1 <0>        -0.4800
     19 C14        13.1016    8.8125   16.1025 C.3       1 <0>        -0.1100
     20 C15        17.8353    1.9486   15.8637 C.3       1 <0>        -0.1400
     21 C16        18.8946    1.0673   15.2100 C.3       1 <0>         0.0600
     22 C17        18.6759    1.0322   13.6939 C.3       1 <0>        -0.1700
     23 C18        18.6832   -0.3728   15.7318 C.3       1 <0>        -0.1800
     24 N3         20.2531    1.4613   15.5387 N.4       1 <0>        -0.4900
     25 H1         20.8909    0.9835   14.8945 H         1 <0>         0.4300
     26 H2         20.4824    1.0799   16.4622 H         1 <0>         0.4200
     27 H3         21.1095    4.4436   14.1553 H         1 <0>         0.1100
     28 H4         21.7095    2.8303   13.7016 H         1 <0>         0.0800
     29 H5         19.9871    3.2296   13.4961 H         1 <0>         0.0800
     30 H6         21.7217    2.7086   17.3754 H         1 <0>         0.0800
     31 H7         22.6832    2.4793   15.8953 H         1 <0>         0.0800
     32 H8         22.1569    4.1118   16.3708 H         1 <0>         0.1100
     33 H9         19.7406    4.7988   16.0153 H         1 <0>         0.1200
     34 H10        19.4969    3.5620   17.2663 H         1 <0>         0.1000
     35 H11        18.1152    3.6360   14.5385 H         1 <0>         0.1100
     36 H12        17.2560    4.5358   17.1900 H         1 <0>         0.4000
     37 H13        15.1153    7.0529   14.8698 H         1 <0>         0.1400
     38 H14        12.9262    5.3905   18.9746 H         1 <0>         0.1500
     39 H15        11.5940    7.8303   18.7974 H         1 <0>         0.4200
     40 H16        13.8783    9.5768   16.1294 H         1 <0>         0.1300
     41 H17        12.5998    8.8102   15.1350 H         1 <0>         0.1300
     42 H18        17.8225    1.7655   16.9408 H         1 <0>         0.0900
     43 H19        16.8526    1.7014   15.4544 H         1 <0>         0.1200
     44 H20        19.4352    0.4014   13.2318 H         1 <0>         0.0800
     45 H21        17.6870    0.6272   13.4787 H         1 <0>         0.1100
     46 H22        18.7497    2.0430   13.2926 H         1 <0>         0.0800
     47 H23        19.4253   -1.0341   15.2844 H         1 <0>         0.0800
     48 H24        18.7916   -0.3860   16.8164 H         1 <0>         0.1100
     49 H25        17.6835   -0.7138   15.4625 H         1 <0>         0.0800
@<TRIPOS>BOND
     1    1    2 1
     2    1   27 1
     3    1   28 1
     4    1   29 1
     5    2   24 1
     6    2    3 1
     7    2    4 1
     8    3   30 1
     9    3   31 1
    10    3   32 1
    11    4    5 1
    12    4   33 1
    13    4   34 1
    14    5    6 1
    15    5   20 1
    16    5   35 1
    17    6    7 am
    18    6   36 1
    19    7    8 2
    20    7    9 1
    21    9   14 ar
    22    9   10 ar
    23   10   11 ar
    24   10   37 1
    25   11   19 1
    26   11   12 ar
    27   12   13 ar
    28   12   16 1
    29   13   14 ar
    30   13   38 1
    31   14   15 1
    32   16   17 am
    33   16   39 1
    34   17   18 2
    35   17   19 1
    36   19   40 1
    37   19   41 1
    38   20   21 1
    39   20   42 1
    40   20   43 1
    41   21   22 1
    42   21   23 1
    43   21   24 1
    44   22   44 1
    45   22   45 1
    46   22   46 1
    47   23   47 1
    48   23   48 1
    49   23   49 1
    50   24   25 1
    51   24   26 1
##########                 Name:            smyd3_351
##########          Protonation:                 none
##########               SMILES:   CNC(=O)N1CCC(NC(=O)C2=CC3=C(C=C2Cl)NC(=O)C3)CC1
##########            Long Name:   NO_LONG_NAME
##########          FlexRecCode: 1
##########               Number:                  910
##########   Ligand Source File: /proj/zinc22/users/x_andlu/OGG1/revisions/docking/targets/smyd3/db2gen/split_par
##########                 Rank:                    1
##########               Setnum:                    6
##########             Matchnum:                    4
##########                Cloud:                    1
##########        Electrostatic:           -18.251352
##########                 Gist:             0.000000
##########        Van der Waals:           -32.147957
##########  Ligand Polar Desolv:             7.653631
########## Ligand Apolar Desolv:            -1.279581
##########      Internal Energy:             0.000000
##########      Receptor Energy:             0.000000
########## Receptor Desolvation:             0.000000
########## Receptor Hydrophobic:             0.000000
##########         Total Energy:           -44.025257
##########        Ligand Charge:             0.000000
##########            Arbitrary:    +999.9990
##########        Ligand Energy:             0.000000

@<TRIPOS>MOLECULE
smyd3_351      none
   43    45     0     0     0
SMALL
USER_CHARGES

@<TRIPOS>ATOM
      1 C1         24.6490    1.7302   15.9303 C.3       1 <0>         0.1000
      2 N1         23.1969    1.7228   15.7371 N.am      1 <0>        -0.7500
      3 C2         22.5594    2.8540   15.3759 C.2       1 <0>         0.7100
      4 O1         23.1895    3.8806   15.2106 O.2       1 <0>        -0.5900
      5 N2         21.2234    2.8474   15.1983 N.am      1 <0>        -0.6300
      6 C3         20.5911    3.7638   14.2396 C.3       1 <0>         0.1300
      7 C4         19.4922    4.5494   14.9530 C.3       1 <0>        -0.1500
      8 C5         18.5227    3.5729   15.6227 C.3       1 <0>         0.1500
      9 N3         17.4514    4.3237   16.2821 N.am      1 <0>        -0.7200
     10 C6         16.3257    4.6265   15.6055 C.2       1 <0>         0.5600
     11 O2         16.1994    4.2764   14.4479 O.2       1 <0>        -0.5100
     12 C7         15.2469    5.3826   16.2694 C.ar      1 <0>        -0.1600
     13 C8         14.8331    6.6168   15.7575 C.ar      1 <0>        -0.0200
     14 C9         13.8289    7.3123   16.3823 C.ar      1 <0>        -0.1500
     15 C10        13.2105    6.8089   17.5237 C.ar      1 <0>         0.1900
     16 C11        13.6236    5.5771   18.0346 C.ar      1 <0>        -0.1400
     17 C12        14.6260    4.8679   17.4128 C.ar      1 <0>         0.0500
     18 Cl1        15.1264    3.3339   18.0530 Cl        1 <0>        -0.0100
     19 N4         12.2309    7.6909   17.9680 N.am      1 <0>        -0.6600
     20 C13        12.1367    8.7837   17.1923 C.2       1 <0>         0.5300
     21 O3         11.3709    9.7116   17.3452 O.2       1 <0>        -0.4900
     22 C14        13.1654    8.6391   16.0910 C.3       1 <0>        -0.1100
     23 C15        19.2740    2.7376   16.6619 C.3       1 <0>        -0.1400
     24 C16        20.3710    1.9276   15.9640 C.3       1 <0>         0.1200
     25 H1         24.9823    0.7329   16.2179 H         1 <0>         0.0800
     26 H2         25.1378    2.0225   15.0010 H         1 <0>         0.0600
     27 H3         24.9075    2.4403   16.7159 H         1 <0>         0.0600
     28 H4         22.6936    0.9049   15.8730 H         1 <0>         0.4000
     29 H5         21.3374    4.4552   13.8484 H         1 <0>         0.1000
     30 H6         20.1548    3.1919   13.4207 H         1 <0>         0.0700
     31 H7         18.9517    5.1600   14.2297 H         1 <0>         0.0800
     32 H8         19.9411    5.1929   15.7097 H         1 <0>         0.0700
     33 H9         18.0928    2.9134   14.8688 H         1 <0>         0.1000
     34 H10        17.5522    4.6031   17.2054 H         1 <0>         0.4000
     35 H11        15.3023    7.0208   14.8727 H         1 <0>         0.1400
     36 H12        13.1515    5.1768   18.9197 H         1 <0>         0.1500
     37 H13        11.6780    7.5345   18.7495 H         1 <0>         0.4200
     38 H14        13.8931    9.4491   16.1391 H         1 <0>         0.1300
     39 H15        12.6800    8.6176   15.1151 H         1 <0>         0.1300
     40 H16        18.5783    2.0587   17.1550 H         1 <0>         0.0900
     41 H17        19.7250    3.3981   17.4026 H         1 <0>         0.0800
     42 H18        19.9163    1.2029   15.2885 H         1 <0>         0.0800
     43 H19        20.9726    1.4059   16.7082 H         1 <0>         0.0800
@<TRIPOS>BOND
     1    1    2 1
     2    1   25 1
     3    1   26 1
     4    1   27 1
     5    2    3 am
     6    2   28 1
     7    3    4 2
     8    3    5 am
     9    5   24 1
    10    5    6 1
    11    6    7 1
    12    6   29 1
    13    6   30 1
    14    7    8 1
    15    7   31 1
    16    7   32 1
    17    8    9 1
    18    8   23 1
    19    8   33 1
    20    9   10 am
    21    9   34 1
    22   10   11 2
    23   10   12 1
    24   12   17 ar
    25   12   13 ar
    26   13   14 ar
    27   13   35 1
    28   14   22 1
    29   14   15 ar
    30   15   16 ar
    31   15   19 1
    32   16   17 ar
    33   16   36 1
    34   17   18 1
    35   19   20 am
    36   19   37 1
    37   20   21 2
    38   20   22 1
    39   22   38 1
    40   22   39 1
    41   23   24 1
    42   23   40 1
    43   23   41 1
    44   24   42 1
    45   24   43 1
##########                 Name:            smyd3_352
##########          Protonation:                 none
##########               SMILES:   COC(=O)N1CCC(NC(=O)C2=CC3=C(C=C2Cl)NC(=O)C3)CC1
##########            Long Name:   NO_LONG_NAME
##########          FlexRecCode: 1
##########               Number:                  911
##########   Ligand Source File: /proj/zinc22/users/x_andlu/OGG1/revisions/docking/targets/smyd3/db2gen/split_par
##########                 Rank:                    1
##########               Setnum:                    2
##########             Matchnum:                    3
##########                Cloud:                    1
##########        Electrostatic:           -17.230572
##########                 Gist:             0.000000
##########        Van der Waals:           -31.036362
##########  Ligand Polar Desolv:             7.071175
########## Ligand Apolar Desolv:            -1.593317
##########      Internal Energy:             0.000000
##########      Receptor Energy:             0.000000
########## Receptor Desolvation:             0.000000
########## Receptor Hydrophobic:             0.000000
##########         Total Energy:           -42.789078
##########        Ligand Charge:             0.000000
##########            Arbitrary:    +999.9990
##########        Ligand Energy:             0.000000

@<TRIPOS>MOLECULE
smyd3_352      none
   42    44     0     0     0
SMALL
USER_CHARGES

@<TRIPOS>ATOM
      1 C1         20.9053   -2.4383   15.9695 C.3       1 <0>         0.0600
      2 O1         20.1524   -1.2838   15.5129 O.3       1 <0>        -0.3700
      3 C2         20.6346   -0.0705   15.8417 C.2       1 <0>         0.6500
      4 O2         21.6566    0.0212   16.4925 O.2       1 <0>        -0.5700
      5 N1         19.9836    1.0425   15.4490 N.am      1 <0>        -0.6000
      6 C3         20.4974    2.3734   15.8000 C.3       1 <0>         0.1300
      7 C4         19.3840    3.1692   16.4884 C.3       1 <0>        -0.1500
      8 C5         18.1453    3.1874   15.5894 C.3       1 <0>         0.1500
      9 N2         17.0881    3.9727   16.2312 N.am      1 <0>        -0.7200
     10 C6         16.1922    4.6399   15.4772 C.2       1 <0>         0.5600
     11 O3         16.2612    4.5901   14.2643 O.2       1 <0>        -0.5100
     12 C7         15.1277    5.4308   16.1235 C.ar      1 <0>        -0.1600
     13 C8         15.0282    6.8057   15.8859 C.ar      1 <0>        -0.0200
     14 C9         14.0347    7.5325   16.4919 C.ar      1 <0>        -0.1500
     15 C10        13.1180    6.9227   17.3444 C.ar      1 <0>         0.1900
     16 C11        13.2173    5.5506   17.5815 C.ar      1 <0>        -0.1400
     17 C12        14.2066    4.8104   16.9745 C.ar      1 <0>         0.0500
     18 Cl1        14.3158    3.1035   17.2712 Cl        1 <0>        -0.0100
     19 N3         12.2154    7.8629   17.8308 N.am      1 <0>        -0.6600
     20 C13        12.4583    9.0970   17.3592 C.2       1 <0>         0.5300
     21 O4         11.8309   10.1026   17.6160 O.2       1 <0>        -0.4900
     22 C14        13.6619    8.9969   16.4462 C.3       1 <0>        -0.1100
     23 C15        17.6519    1.7565   15.3637 C.3       1 <0>        -0.1400
     24 C16        18.7470    0.9478   14.6612 C.3       1 <0>         0.1200
     25 H1         20.4097   -3.3501   15.6367 H         1 <0>         0.0600
     26 H2         21.9135   -2.4014   15.5556 H         1 <0>         0.0600
     27 H3         20.9590   -2.4298   17.0577 H         1 <0>         0.1000
     28 H4         21.3455    2.2708   16.4771 H         1 <0>         0.1000
     29 H5         20.8128    2.8936   14.8956 H         1 <0>         0.0800
     30 H6         19.1343    2.6980   17.4390 H         1 <0>         0.0700
     31 H7         19.7227    4.1900   16.6657 H         1 <0>         0.0900
     32 H8         18.4013    3.6387   14.6307 H         1 <0>         0.1000
     33 H9         17.0330    4.0125   17.1988 H         1 <0>         0.4000
     34 H10        15.7312    7.2936   15.2270 H         1 <0>         0.1400
     35 H11        12.5123    5.0667   18.2411 H         1 <0>         0.1500
     36 H12        11.4921    7.6509   18.4413 H         1 <0>         0.4200
     37 H13        14.4795    9.6114   16.8231 H         1 <0>         0.1300
     38 H14        13.3970    9.2925   15.4310 H         1 <0>         0.1300
     39 H15        16.7570    1.7741   14.7416 H         1 <0>         0.0900
     40 H16        17.4190    1.2962   16.3239 H         1 <0>         0.0800
     41 H17        18.9173    1.3526   13.6636 H         1 <0>         0.0800
     42 H18        18.4414   -0.0958   14.5848 H         1 <0>         0.1000
@<TRIPOS>BOND
     1    1    2 1
     2    1   25 1
     3    1   26 1
     4    1   27 1
     5    2    3 1
     6    3    4 2
     7    3    5 am
     8    5   24 1
     9    5    6 1
    10    6    7 1
    11    6   28 1
    12    6   29 1
    13    7    8 1
    14    7   30 1
    15    7   31 1
    16    8    9 1
    17    8   23 1
    18    8   32 1
    19    9   10 am
    20    9   33 1
    21   10   11 2
    22   10   12 1
    23   12   17 ar
    24   12   13 ar
    25   13   14 ar
    26   13   34 1
    27   14   22 1
    28   14   15 ar
    29   15   16 ar
    30   15   19 1
    31   16   17 ar
    32   16   35 1
    33   17   18 1
    34   19   20 am
    35   19   36 1
    36   20   21 2
    37   20   22 1
    38   22   37 1
    39   22   38 1
    40   23   24 1
    41   23   39 1
    42   23   40 1
    43   24   41 1
    44   24   42 1
##########                 Name:            smyd3_353
##########          Protonation:                 none
##########               SMILES:   CS(=O)(=O)N1CCC(NC(=O)C2=CC3=C(C=C2Cl)NC(=O)C3)CC1
##########            Long Name:   NO_LONG_NAME
##########          FlexRecCode: 1
##########               Number:                  914
##########   Ligand Source File: /proj/zinc22/users/x_andlu/OGG1/revisions/docking/targets/smyd3/db2gen/split_par
##########                 Rank:                    1
##########               Setnum:                   25
##########             Matchnum:                   10
##########                Cloud:                    1
##########        Electrostatic:           -19.169546
##########                 Gist:             0.000000
##########        Van der Waals:           -34.844231
##########  Ligand Polar Desolv:             8.592860
########## Ligand Apolar Desolv:            -0.824433
##########      Internal Energy:             0.000000
##########      Receptor Energy:             0.000000
########## Receptor Desolvation:             0.000000
########## Receptor Hydrophobic:             0.000000
##########         Total Energy:           -46.245350
##########        Ligand Charge:             0.000000
##########            Arbitrary:    +999.9990
##########        Ligand Energy:             0.000000

@<TRIPOS>MOLECULE
smyd3_353      none
   42    44     0     0     0
SMALL
USER_CHARGES

@<TRIPOS>ATOM
      1 C1         22.0879   -0.7617   15.4560 C.3       1 <0>        -0.6700
      2 S1         20.3441   -0.7584   15.9555 S.o2      1 <0>         2.6100
      3 O1         20.2305   -0.8234   17.3705 O.2       1 <0>        -0.9500
      4 O2         19.5843   -1.6203   15.1194 O.2       1 <0>        -0.9500
      5 N1         19.8072    0.7604   15.5720 N.pl3     1 <0>        -1.0000
      6 C2         20.4257    1.9480   16.1773 C.3       1 <0>         0.1200
      7 C3         19.3279    2.8033   16.8177 C.3       1 <0>        -0.1400
      8 C4         18.2557    3.1169   15.7718 C.3       1 <0>         0.1500
      9 N2         17.2208    3.9624   16.3721 N.am      1 <0>        -0.7300
     10 C5         16.1691    4.3676   15.6329 C.2       1 <0>         0.5600
     11 O3         16.0793    4.0313   14.4679 O.2       1 <0>        -0.5100
     12 C6         15.1271    5.2191   16.2375 C.ar      1 <0>        -0.1600
     13 C7         14.8631    6.4889   15.7136 C.ar      1 <0>        -0.0200
     14 C8         13.8922    7.2736   16.2832 C.ar      1 <0>        -0.1500
     15 C9         13.1606    6.8260   17.3801 C.ar      1 <0>         0.1900
     16 C10        13.4243    5.5586   17.9029 C.ar      1 <0>        -0.1400
     17 C11        14.3959    4.7629   17.3396 C.ar      1 <0>         0.0500
     18 Cl1        14.7144    3.1885   17.9979 Cl        1 <0>        -0.0100
     19 N3         12.2469    7.7969   17.7766 N.am      1 <0>        -0.6600
     20 C12        12.2992    8.8944   17.0038 C.2       1 <0>         0.5300
     21 O4         11.6162    9.8900   17.1195 O.2       1 <0>        -0.4900
     22 C13        13.3752    8.6581   15.9653 C.3       1 <0>        -0.1100
     23 C14        17.6255    1.8126   15.2781 C.3       1 <0>        -0.1500
     24 C15        18.7038    0.9462   14.6199 C.3       1 <0>         0.1200
     25 H1         22.1547   -0.7117   14.3692 H         1 <0>         0.1300
     26 H2         22.5922    0.1010   15.8911 H         1 <0>         0.1300
     27 H3         22.5648   -1.6768   15.8075 H         1 <0>         0.1300
     28 H4         20.9369    2.5260   15.4075 H         1 <0>         0.0800
     29 H5         21.1402    1.6391   16.9402 H         1 <0>         0.1000
     30 H6         19.7601    3.7336   17.1861 H         1 <0>         0.0900
     31 H7         18.8784    2.2569   17.6470 H         1 <0>         0.0700
     32 H8         18.7107    3.6412   14.9314 H         1 <0>         0.1000
     33 H9         17.2924    4.2306   17.3015 H         1 <0>         0.4000
     34 H10        15.4215    6.8505   14.8628 H         1 <0>         0.1400
     35 H11        12.8632    5.2008   18.7536 H         1 <0>         0.1500
     36 H12        11.6389    7.6923   18.5252 H         1 <0>         0.4200
     37 H13        12.9507    8.6865   14.9619 H         1 <0>         0.1300
     38 H14        14.1703    9.3972   16.0640 H         1 <0>         0.1300
     39 H15        17.1921    1.2757   16.1220 H         1 <0>         0.0700
     40 H16        16.8458    2.0379   14.5505 H         1 <0>         0.0800
     41 H17        19.0747    1.4427   13.7231 H         1 <0>         0.0800
     42 H18        18.2839   -0.0237   14.3533 H         1 <0>         0.1000
@<TRIPOS>BOND
     1    1    2 1
     2    1   25 1
     3    1   26 1
     4    1   27 1
     5    2    3 2
     6    2    4 2
     7    2    5 1
     8    5   24 1
     9    5    6 1
    10    6    7 1
    11    6   28 1
    12    6   29 1
    13    7    8 1
    14    7   30 1
    15    7   31 1
    16    8    9 1
    17    8   23 1
    18    8   32 1
    19    9   10 am
    20    9   33 1
    21   10   11 2
    22   10   12 1
    23   12   17 ar
    24   12   13 ar
    25   13   14 ar
    26   13   34 1
    27   14   22 1
    28   14   15 ar
    29   15   16 ar
    30   15   19 1
    31   16   17 ar
    32   16   35 1
    33   17   18 1
    34   19   20 am
    35   19   36 1
    36   20   21 2
    37   20   22 1
    38   22   37 1
    39   22   38 1
    40   23   24 1
    41   23   39 1
    42   23   40 1
    43   24   41 1
    44   24   42 1
##########                 Name:            smyd3_354
##########          Protonation:                 none
##########               SMILES:   NS(=O)(=O)N1CCC(NC(=O)C2=C(Cl)C=C3NC(=O)CC3=C2)CC1
##########            Long Name:   NO_LONG_NAME
##########          FlexRecCode: 1
##########               Number:                  916
##########   Ligand Source File: /proj/zinc22/users/x_andlu/OGG1/revisions/docking/targets/smyd3/db2gen/split_par
##########                 Rank:                    1
##########               Setnum:                    8
##########             Matchnum:                   17
##########                Cloud:                    1
##########        Electrostatic:           -15.954085
##########                 Gist:             0.000000
##########        Van der Waals:           -33.330555
##########  Ligand Polar Desolv:             7.579556
########## Ligand Apolar Desolv:            -0.287871
##########      Internal Energy:             0.000000
##########      Receptor Energy:             0.000000
########## Receptor Desolvation:             0.000000
########## Receptor Hydrophobic:             0.000000
##########         Total Energy:           -41.992958
##########        Ligand Charge:             0.000000
##########            Arbitrary:    +999.9990
##########        Ligand Energy:             0.000000

@<TRIPOS>MOLECULE
smyd3_354      none
   41    43     0     0     0
SMALL
USER_CHARGES

@<TRIPOS>ATOM
      1 N1         23.0774    3.5581   16.5146 N.pl3     1 <0>        -1.2600
      2 S1         22.6852    2.5756   15.2406 S.o2      1 <0>         2.7900
      3 O1         22.9589    1.2459   15.6601 O.2       1 <0>        -0.9800
      4 O2         23.2707    3.1623   14.0864 O.2       1 <0>        -0.9800
      5 N2         21.0450    2.6724   15.0336 N.pl3     1 <0>        -1.0000
      6 C1         20.4613    3.6860   14.1443 C.3       1 <0>         0.1200
      7 C2         19.4087    4.4794   14.9249 C.3       1 <0>        -0.1400
      8 C3         18.3893    3.5105   15.5285 C.3       1 <0>         0.1500
      9 N3         17.3626    4.2682   16.2482 N.am      1 <0>        -0.7300
     10 C4         16.2531    4.6800   15.6035 C.2       1 <0>         0.5600
     11 O3         16.1041    4.4227   14.4244 O.2       1 <0>        -0.5100
     12 C5         15.2191    5.4431   16.3282 C.ar      1 <0>        -0.1600
     13 C6         14.5748    4.8810   17.4351 C.ar      1 <0>         0.0500
     14 Cl1        14.9922    3.2792   17.9584 Cl        1 <0>        -0.0100
     15 C7         13.6101    5.5943   18.1106 C.ar      1 <0>        -0.1400
     16 C8         13.2682    6.8828   17.6976 C.ar      1 <0>         0.1900
     17 N4         12.3449    7.7849   18.2161 N.am      1 <0>        -0.6600
     18 C9         12.3097    8.9355   17.5237 C.2       1 <0>         0.5300
     19 O4         11.5994    9.8917   17.7518 O.2       1 <0>        -0.4900
     20 C10        13.3275    8.8173   16.4093 C.3       1 <0>        -0.1100
     21 C11        13.9139    7.4363   16.5946 C.ar      1 <0>        -0.1500
     22 C12        14.8761    6.7347   15.9139 C.ar      1 <0>        -0.0200
     23 C13        19.0972    2.5622   16.4989 C.3       1 <0>        -0.1500
     24 C14        20.1459    1.7468   15.7360 C.3       1 <0>         0.1200
     25 H1         23.2971    4.4899   16.3589 H         1 <0>         0.4200
     26 H2         23.0875    3.2016   17.4168 H         1 <0>         0.4100
     27 H3         19.9915    3.1965   13.2912 H         1 <0>         0.0800
     28 H4         21.2420    4.3609   13.7939 H         1 <0>         0.1000
     29 H5         18.9004    5.1696   14.2518 H         1 <0>         0.0900
     30 H6         19.8943    5.0405   15.7233 H         1 <0>         0.0700
     31 H7         17.9221    2.9321   14.7315 H         1 <0>         0.1000
     32 H8         17.4814    4.4734   17.1887 H         1 <0>         0.4000
     33 H9         13.1156    5.1545   18.9642 H         1 <0>         0.1500
     34 H10        11.7877    7.6027   18.9889 H         1 <0>         0.4200
     35 H11        12.8411    8.8987   15.4373 H         1 <0>         0.1300
     36 H12        14.0994    9.5798   16.5143 H         1 <0>         0.1300
     37 H13        15.3674    7.1778   15.0603 H         1 <0>         0.1400
     38 H14        19.5858    3.1416   17.2824 H         1 <0>         0.0700
     39 H15        18.3670    1.8877   16.9463 H         1 <0>         0.0900
     40 H16        19.6505    1.0992   15.0128 H         1 <0>         0.0800
     41 H17        20.7204    1.1402   16.4362 H         1 <0>         0.1000
@<TRIPOS>BOND
     1    1    2 1
     2    1   25 1
     3    1   26 1
     4    2    3 2
     5    2    4 2
     6    2    5 1
     7    5   24 1
     8    5    6 1
     9    6    7 1
    10    6   27 1
    11    6   28 1
    12    7    8 1
    13    7   29 1
    14    7   30 1
    15    8    9 1
    16    8   23 1
    17    8   31 1
    18    9   10 am
    19    9   32 1
    20   10   11 2
    21   10   12 1
    22   12   22 ar
    23   12   13 ar
    24   13   14 1
    25   13   15 ar
    26   15   16 ar
    27   15   33 1
    28   16   21 ar
    29   16   17 1
    30   17   18 am
    31   17   34 1
    32   18   19 2
    33   18   20 1
    34   20   21 1
    35   20   35 1
    36   20   36 1
    37   21   22 ar
    38   22   37 1
    39   23   24 1
    40   23   38 1
    41   23   39 1
    42   24   40 1
    43   24   41 1
##########                 Name:            smyd3_355
##########          Protonation:                 none
##########               SMILES:   O=C1CC2=CC(C(=O)NC3CCN(S(=O)(=O)F)CC3)=C(Cl)C=C2N1
##########            Long Name:   NO_LONG_NAME
##########          FlexRecCode: 1
##########               Number:                  917
##########   Ligand Source File: /proj/zinc22/users/x_andlu/OGG1/revisions/docking/targets/smyd3/db2gen/split_par
##########                 Rank:                    1
##########               Setnum:                    4
##########             Matchnum:                   10
##########                Cloud:                    1
##########        Electrostatic:           -17.156914
##########                 Gist:             0.000000
##########        Van der Waals:           -32.988503
##########  Ligand Polar Desolv:             6.712382
########## Ligand Apolar Desolv:            -1.018882
##########      Internal Energy:             0.000000
##########      Receptor Energy:             0.000000
########## Receptor Desolvation:             0.000000
########## Receptor Hydrophobic:             0.000000
##########         Total Energy:           -44.451916
##########        Ligand Charge:             0.000000
##########            Arbitrary:    +999.9990
##########        Ligand Energy:             0.000000

@<TRIPOS>MOLECULE
smyd3_355      none
   39    41     0     0     0
SMALL
USER_CHARGES

@<TRIPOS>ATOM
      1 O1         11.6455    9.8084   17.4171 O.2       1 <0>        -0.4900
      2 C1         12.3365    8.8274   17.2404 C.2       1 <0>         0.5300
      3 C2         13.3628    8.6364   16.1440 C.3       1 <0>        -0.1100
      4 C3         13.9155    7.2522   16.3977 C.ar      1 <0>        -0.1500
      5 C4         14.8683    6.4994   15.7598 C.ar      1 <0>        -0.0200
      6 C5         15.1773    5.2203   16.2354 C.ar      1 <0>        -0.1600
      7 C6         16.2002    4.4021   15.5569 C.2       1 <0>         0.5600
      8 O2         16.0598    4.1000   14.3875 O.2       1 <0>        -0.5100
      9 N1         17.2906    3.9895   16.2333 N.am      1 <0>        -0.7300
     10 C7         18.3065    3.1770   15.5594 C.3       1 <0>         0.1500
     11 C8         18.9776    2.2523   16.5776 C.3       1 <0>        -0.1500
     12 C9         20.0149    1.3803   15.8634 C.3       1 <0>         0.1200
     13 N2         20.9460    2.2531   15.1354 N.pl3     1 <0>        -1.0100
     14 S1         22.5805    2.1241   15.3684 S.o2      1 <0>         2.7600
     15 O3         23.1950    2.6474   14.1989 O.2       1 <0>        -0.9400
     16 O4         22.8149    0.8066   15.8464 O.2       1 <0>        -0.9400
     17 F1         22.9705    3.1203   16.5716 F         1 <0>        -0.4900
     18 C10        20.3991    3.2467   14.2015 C.3       1 <0>         0.1200
     19 C11        19.3578    4.0943   14.9301 C.3       1 <0>        -0.1500
     20 C12        14.5047    4.7209   17.3555 C.ar      1 <0>         0.0500
     21 Cl1        14.8746    3.1325   17.9503 Cl        1 <0>        -0.0100
     22 C13        13.5542    5.4879   17.9914 C.ar      1 <0>        -0.1400
     23 C14        13.2460    6.7638   17.5171 C.ar      1 <0>         0.1900
     24 N3         12.3347    7.7067   17.9810 N.am      1 <0>        -0.6600
     25 H1         14.1520    9.3838   16.2249 H         1 <0>         0.1300
     26 H2         12.8883    8.6847   15.1638 H         1 <0>         0.1300
     27 H3         15.3781    6.8925   14.8928 H         1 <0>         0.1400
     28 H4         17.4027    4.2305   17.1661 H         1 <0>         0.4000
     29 H5         17.8346    2.5781   14.7806 H         1 <0>         0.1000
     30 H6         18.2249    1.6156   17.0422 H         1 <0>         0.0900
     31 H7         19.4710    2.8513   17.3431 H         1 <0>         0.0800
     32 H8         19.5121    0.7156   15.1608 H         1 <0>         0.0900
     33 H9         20.5649    0.7892   16.5957 H         1 <0>         0.1000
     34 H10        21.2022    3.8886   13.8393 H         1 <0>         0.1000
     35 H11        19.9282    2.7375   13.3607 H         1 <0>         0.0900
     36 H12        18.8757    4.7683   14.2223 H         1 <0>         0.0900
     37 H13        19.8477    4.6758   15.7113 H         1 <0>         0.0700
     38 H14        13.0419    5.0986   18.8587 H         1 <0>         0.1500
     39 H15        11.7625    7.5704   18.7524 H         1 <0>         0.4200
@<TRIPOS>BOND
     1    1    2 2
     2    2   24 am
     3    2    3 1
     4    3    4 1
     5    3   25 1
     6    3   26 1
     7    4   23 ar
     8    4    5 ar
     9    5    6 ar
    10    5   27 1
    11    6    7 1
    12    6   20 ar
    13    7    8 2
    14    7    9 am
    15    9   10 1
    16    9   28 1
    17   10   19 1
    18   10   11 1
    19   10   29 1
    20   11   12 1
    21   11   30 1
    22   11   31 1
    23   12   13 1
    24   12   32 1
    25   12   33 1
    26   13   14 1
    27   13   18 1
    28   14   15 2
    29   14   16 2
    30   14   17 1
    31   18   19 1
    32   18   34 1
    33   18   35 1
    34   19   36 1
    35   19   37 1
    36   20   21 1
    37   20   22 ar
    38   22   23 ar
    39   22   38 1
    40   23   24 1
    41   24   39 1
##########                 Name:            smyd3_357
##########          Protonation:                 none
##########               SMILES:   CCC(C)[NH+]1CCC(NC(=O)C2=CC3=C(C=C2Cl)NC(=O)C3)CC1
##########            Long Name:   NO_LONG_NAME
##########          FlexRecCode: 1
##########               Number:                  922
##########   Ligand Source File: /proj/zinc22/users/x_andlu/OGG1/revisions/docking/targets/smyd3/db2gen/split_par
##########                 Rank:                    1
##########               Setnum:                   49
##########             Matchnum:                   12
##########                Cloud:                    1
##########        Electrostatic:           -23.283129
##########                 Gist:             0.000000
##########        Van der Waals:           -29.732134
##########  Ligand Polar Desolv:             9.461611
########## Ligand Apolar Desolv:            -2.226772
##########      Internal Energy:             0.000000
##########      Receptor Energy:             0.000000
########## Receptor Desolvation:             0.000000
########## Receptor Hydrophobic:             0.000000
##########         Total Energy:           -45.780422
##########        Ligand Charge:             1.000000
##########            Arbitrary:    +999.9990
##########        Ligand Energy:             0.000000

@<TRIPOS>MOLECULE
smyd3_357      none
   49    51     0     0     0
SMALL
USER_CHARGES

@<TRIPOS>ATOM
      1 C1         24.1404    4.1452   16.3750 C.3       1 <0>        -0.1800
      2 C2         23.7743    2.8357   15.6737 C.3       1 <0>        -0.1500
      3 C3         22.7569    3.1174   14.5663 C.3       1 <0>         0.0200
      4 C4         23.3641    4.0875   13.5507 C.3       1 <0>        -0.1900
      5 N1         21.5487    3.7138   15.1514 N.4       1 <0>        -0.3800
      6 H1         21.7912    4.5772   15.6137 H         1 <0>         0.4200
      7 C5         20.9695    2.7836   16.1281 C.3       1 <0>        -0.0100
      8 C6         19.7582    3.4335   16.8007 C.3       1 <0>        -0.1600
      9 C7         18.7118    3.7720   15.7351 C.3       1 <0>         0.1400
     10 N2         17.5812    4.4624   16.3607 N.am      1 <0>        -0.7300
     11 C8         16.5368    4.8629   15.6091 C.2       1 <0>         0.5700
     12 O1         16.5328    4.6512   14.4117 O.2       1 <0>        -0.5000
     13 C9         15.3982    5.5579   16.2389 C.ar      1 <0>        -0.1700
     14 C10        15.0499    6.8506   15.8335 C.ar      1 <0>        -0.0200
     15 C11        13.9893    7.4886   16.4254 C.ar      1 <0>        -0.1500
     16 C12        13.2485    6.8691   17.4286 C.ar      1 <0>         0.2000
     17 C13        13.5962    5.5789   17.8332 C.ar      1 <0>        -0.1400
     18 C14        14.6548    4.9271   17.2423 C.ar      1 <0>         0.0600
     19 Cl1        15.0732    3.3201   17.7487 Cl        1 <0>        -0.0100
     20 N3         12.2330    7.7127   17.8665 N.am      1 <0>        -0.6600
     21 C15        12.2298    8.8891   17.2179 C.2       1 <0>         0.5300
     22 O2         11.4584    9.8077   17.3962 O.2       1 <0>        -0.4800
     23 C16        13.3697    8.8527   16.2222 C.3       1 <0>        -0.1100
     24 C17        19.3476    4.6822   14.6804 C.3       1 <0>        -0.1600
     25 C18        20.5750    3.9868   14.0875 C.3       1 <0>        -0.0100
     26 H2         24.8651    3.9446   17.1639 H         1 <0>         0.0500
     27 H3         24.5727    4.8363   15.6515 H         1 <0>         0.0700
     28 H4         23.2438    4.5877   16.8093 H         1 <0>         0.0800
     29 H5         23.3419    2.1445   16.3970 H         1 <0>         0.1100
     30 H6         24.6709    2.3932   15.2394 H         1 <0>         0.0900
     31 H7         22.4962    2.1845   14.0666 H         1 <0>         0.1400
     32 H8         22.6393    4.2883   12.7617 H         1 <0>         0.0800
     33 H9         23.6248    5.0205   14.0504 H         1 <0>         0.1100
     34 H10        24.2605    3.6450   13.1166 H         1 <0>         0.0800
     35 H11        20.6575    1.8715   15.6196 H         1 <0>         0.1300
     36 H12        21.7160    2.5400   16.8841 H         1 <0>         0.1300
     37 H13        20.0690    4.3465   17.3087 H         1 <0>         0.0900
     38 H14        19.3291    2.7417   17.5255 H         1 <0>         0.1200
     39 H15        18.3620    2.8546   15.2617 H         1 <0>         0.1100
     40 H16        17.5844    4.6314   17.3159 H         1 <0>         0.4000
     41 H17        15.6142    7.3449   15.0564 H         1 <0>         0.1400
     42 H18        13.0293    5.0884   18.6105 H         1 <0>         0.1500
     43 H19        11.5984    7.4779   18.5616 H         1 <0>         0.4200
     44 H20        14.0936    9.6376   16.4411 H         1 <0>         0.1300
     45 H21        12.9917    8.9530   15.2047 H         1 <0>         0.1300
     46 H22        19.6498    5.6210   15.1443 H         1 <0>         0.0900
     47 H23        18.6255    4.8830   13.8890 H         1 <0>         0.1200
     48 H24        21.0300    4.6320   13.3361 H         1 <0>         0.1400
     49 H25        20.2713    3.0482   13.6240 H         1 <0>         0.1400
@<TRIPOS>BOND
     1    1    2 1
     2    1   26 1
     3    1   27 1
     4    1   28 1
     5    2    3 1
     6    2   29 1
     7    2   30 1
     8    3    4 1
     9    3    5 1
    10    3   31 1
    11    4   32 1
    12    4   33 1
    13    4   34 1
    14    5    6 1
    15    5   25 1
    16    5    7 1
    17    7    8 1
    18    7   35 1
    19    7   36 1
    20    8    9 1
    21    8   37 1
    22    8   38 1
    23    9   10 1
    24    9   24 1
    25    9   39 1
    26   10   11 am
    27   10   40 1
    28   11   12 2
    29   11   13 1
    30   13   18 ar
    31   13   14 ar
    32   14   15 ar
    33   14   41 1
    34   15   23 1
    35   15   16 ar
    36   16   17 ar
    37   16   20 1
    38   17   18 ar
    39   17   42 1
    40   18   19 1
    41   20   21 am
    42   20   43 1
    43   21   22 2
    44   21   23 1
    45   23   44 1
    46   23   45 1
    47   24   25 1
    48   24   46 1
    49   24   47 1
    50   25   48 1
    51   25   49 1
##########                 Name:            smyd3_358
##########          Protonation:                 none
##########               SMILES:   O=C1CC2=CC(C(=O)NC3CC[NH+](C4CCC4)CC3)=C(Cl)C=C2N1
##########            Long Name:   NO_LONG_NAME
##########          FlexRecCode: 1
##########               Number:                  923
##########   Ligand Source File: /proj/zinc22/users/x_andlu/OGG1/revisions/docking/targets/smyd3/db2gen/split_par
##########                 Rank:                    1
##########               Setnum:                   13
##########             Matchnum:                   13
##########                Cloud:                    1
##########        Electrostatic:           -22.982666
##########                 Gist:             0.000000
##########        Van der Waals:           -30.353861
##########  Ligand Polar Desolv:             8.739676
########## Ligand Apolar Desolv:            -2.607893
##########      Internal Energy:             0.000000
##########      Receptor Energy:             0.000000
########## Receptor Desolvation:             0.000000
########## Receptor Hydrophobic:             0.000000
##########         Total Energy:           -47.204742
##########        Ligand Charge:             1.000000
##########            Arbitrary:    +999.9990
##########        Ligand Energy:             0.000000

@<TRIPOS>MOLECULE
smyd3_358      none
   47    50     0     0     0
SMALL
USER_CHARGES

@<TRIPOS>ATOM
      1 O1         11.1440   10.0647   16.7178 O.2       1 <0>        -0.4800
      2 C1         11.9231    9.1359   16.7505 C.2       1 <0>         0.5300
      3 C2         13.1042    8.9203   15.8284 C.3       1 <0>        -0.1100
      4 C3         13.7168    7.6266   16.3151 C.ar      1 <0>        -0.1500
      5 C4         14.8025    6.8976   15.9015 C.ar      1 <0>        -0.0200
      6 C5         15.1355    5.7100   16.5621 C.ar      1 <0>        -0.1700
      7 C6         16.2977    4.9152   16.1215 C.2       1 <0>         0.5700
      8 O2         17.4102    5.4057   16.1357 O.2       1 <0>        -0.5000
      9 N1         16.1262    3.6455   15.7035 N.am      1 <0>        -0.7300
     10 C7         17.2802    2.8562   15.2661 C.3       1 <0>         0.1400
     11 C8         16.8160    1.4572   14.8506 C.3       1 <0>        -0.1600
     12 C9         18.0346    0.6131   14.4708 C.3       1 <0>        -0.0000
     13 N2         18.9396    0.5083   15.6217 N.4       1 <0>        -0.3800
     14 H1         18.4405    0.1163   16.4061 H         1 <0>         0.4200
     15 C10        20.0684   -0.3662   15.2770 C.3       1 <0>        -0.0100
     16 C11        19.9533   -1.7819   15.8664 C.3       1 <0>        -0.1500
     17 C12        21.4628   -1.7022   16.1485 C.3       1 <0>        -0.1400
     18 C13        21.2959   -0.1739   16.1830 C.3       1 <0>        -0.1500
     19 C14        19.4451    1.8387   15.9807 C.3       1 <0>        -0.0000
     20 C15        18.2808    2.7299   16.4185 C.3       1 <0>        -0.1600
     21 C16        14.3549    5.2792   17.6397 C.ar      1 <0>         0.0600
     22 Cl1        14.7580    3.8071   18.4667 Cl        1 <0>        -0.0100
     23 C17        13.2672    6.0191   18.0463 C.ar      1 <0>        -0.1400
     24 C18        12.9349    7.2037   17.3873 C.ar      1 <0>         0.2000
     25 N3         11.9004    8.1059   17.6127 N.am      1 <0>        -0.6600
     26 H2         13.8169    9.7397   15.9223 H         1 <0>         0.1300
     27 H3         12.7696    8.8200   14.7958 H         1 <0>         0.1300
     28 H4         15.3984    7.2391   15.0679 H         1 <0>         0.1400
     29 H5         15.2388    3.2542   15.6923 H         1 <0>         0.4000
     30 H6         17.7592    3.3487   14.4199 H         1 <0>         0.1100
     31 H7         16.2917    0.9858   15.6818 H         1 <0>         0.0900
     32 H8         16.1462    1.5354   13.9942 H         1 <0>         0.1200
     33 H9         18.5581    1.0852   13.6394 H         1 <0>         0.1300
     34 H10        17.7076   -0.3834   14.1742 H         1 <0>         0.1300
     35 H11        20.3047   -0.3528   14.2130 H         1 <0>         0.1600
     36 H12        19.3426   -1.8313   16.7679 H         1 <0>         0.1000
     37 H13        19.6861   -2.5408   15.1309 H         1 <0>         0.1000
     38 H14        22.0806   -2.0553   15.3228 H         1 <0>         0.1000
     39 H15        21.7511   -2.1318   17.1079 H         1 <0>         0.1000
     40 H16        22.1126    0.3656   15.7033 H         1 <0>         0.1000
     41 H17        21.0524    0.2179   17.1707 H         1 <0>         0.1000
     42 H18        19.9385    2.2846   15.1170 H         1 <0>         0.1300
     43 H19        20.1592    1.7465   16.7990 H         1 <0>         0.1300
     44 H20        18.6580    3.7177   16.6829 H         1 <0>         0.1200
     45 H21        17.7869    2.2850   17.2823 H         1 <0>         0.0900
     46 H22        12.6683    5.6812   18.8791 H         1 <0>         0.1500
     47 H23        11.2372    8.0028   18.3129 H         1 <0>         0.4200
@<TRIPOS>BOND
     1    1    2 2
     2    2   25 am
     3    2    3 1
     4    3    4 1
     5    3   26 1
     6    3   27 1
     7    4   24 ar
     8    4    5 ar
     9    5    6 ar
    10    5   28 1
    11    6    7 1
    12    6   21 ar
    13    7    8 2
    14    7    9 am
    15    9   10 1
    16    9   29 1
    17   10   20 1
    18   10   11 1
    19   10   30 1
    20   11   12 1
    21   11   31 1
    22   11   32 1
    23   12   13 1
    24   12   33 1
    25   12   34 1
    26   13   14 1
    27   13   15 1
    28   13   19 1
    29   15   18 1
    30   15   16 1
    31   15   35 1
    32   16   17 1
    33   16   36 1
    34   16   37 1
    35   17   18 1
    36   17   38 1
    37   17   39 1
    38   18   40 1
    39   18   41 1
    40   19   20 1
    41   19   42 1
    42   19   43 1
    43   20   44 1
    44   20   45 1
    45   21   22 1
    46   21   23 ar
    47   23   24 ar
    48   23   46 1
    49   24   25 1
    50   25   47 1
##########                 Name:            smyd3_359
##########          Protonation:                 none
##########               SMILES:   O=C1CC2=CC(C(=O)NC3CC[NH+](C4COC4)CC3)=C(Cl)C=C2N1
##########            Long Name:   NO_LONG_NAME
##########          FlexRecCode: 1
##########               Number:                  926
##########   Ligand Source File: /proj/zinc22/users/x_andlu/OGG1/revisions/docking/targets/smyd3/db2gen/split_par
##########                 Rank:                    1
##########               Setnum:                   13
##########             Matchnum:                   15
##########                Cloud:                    1
##########        Electrostatic:           -23.545099
##########                 Gist:             0.000000
##########        Van der Waals:           -29.881800
##########  Ligand Polar Desolv:            10.124399
########## Ligand Apolar Desolv:            -1.816583
##########      Internal Energy:             0.000000
##########      Receptor Energy:             0.000000
########## Receptor Desolvation:             0.000000
########## Receptor Hydrophobic:             0.000000
##########         Total Energy:           -45.119080
##########        Ligand Charge:             1.000000
##########            Arbitrary:    +999.9990
##########        Ligand Energy:             0.000000

@<TRIPOS>MOLECULE
smyd3_359      none
   45    48     0     0     0
SMALL
USER_CHARGES

@<TRIPOS>ATOM
      1 O1         11.1317    9.9091   16.6102 O.2       1 <0>        -0.4800
      2 C1         11.9185    8.9875   16.6590 C.2       1 <0>         0.5300
      3 C2         13.0974    8.7622   15.7363 C.3       1 <0>        -0.1100
      4 C3         13.7227    7.4842   16.2474 C.ar      1 <0>        -0.1500
      5 C4         14.8126    6.7555   15.8443 C.ar      1 <0>        -0.0200
      6 C5         15.1583    5.5848   16.5283 C.ar      1 <0>        -0.1700
      7 C6         16.3250    4.7904   16.0993 C.2       1 <0>         0.5700
      8 O2         17.4336    5.2901   16.0982 O.2       1 <0>        -0.5000
      9 N1         16.1623    3.5109   15.7085 N.am      1 <0>        -0.7300
     10 C7         17.3209    2.7220   15.2826 C.3       1 <0>         0.1400
     11 C8         16.8660    1.3116   14.8965 C.3       1 <0>        -0.1600
     12 C9         18.0901    0.4690   14.5308 C.3       1 <0>        -0.0000
     13 N2         19.0009    0.3956   15.6796 N.4       1 <0>        -0.3800
     14 H1         18.5074    0.0166   16.4738 H         1 <0>         0.4200
     15 C10        20.1353   -0.4768   15.3480 C.3       1 <0>        -0.0600
     16 C11        20.0549   -1.8736   15.9921 C.3       1 <0>         0.0400
     17 O3         21.4567   -1.6975   16.2796 O.3       1 <0>        -0.3400
     18 C12        21.3699   -0.2588   16.2432 C.3       1 <0>         0.0400
     19 C13        19.4971    1.7373   16.0085 C.3       1 <0>        -0.0000
     20 C14        18.3274    2.6279   16.4328 C.3       1 <0>        -0.1600
     21 C15        14.3858    5.1704   17.6181 C.ar      1 <0>         0.0600
     22 Cl1        14.8048    3.7194   18.4740 Cl        1 <0>        -0.0100
     23 C16        13.2939    5.9098   18.0139 C.ar      1 <0>        -0.1400
     24 C17        12.9490    7.0775   17.3317 C.ar      1 <0>         0.2000
     25 N3         11.9080    7.9757   17.5427 N.am      1 <0>        -0.6600
     26 H2         13.8037    9.5892   15.8097 H         1 <0>         0.1300
     27 H3         12.7592    8.6375   14.7076 H         1 <0>         0.1300
     28 H4         15.4021    7.0842   15.0012 H         1 <0>         0.1400
     29 H5         15.2780    3.1123   15.7094 H         1 <0>         0.4000
     30 H6         17.7921    3.2008   14.4241 H         1 <0>         0.1100
     31 H7         16.3483    0.8528   15.7389 H         1 <0>         0.0900
     32 H8         16.1925    1.3675   14.0414 H         1 <0>         0.1200
     33 H9         18.6061    0.9278   13.6873 H         1 <0>         0.1300
     34 H10        17.7695   -0.5360   14.2569 H         1 <0>         0.1300
     35 H11        20.3622   -0.4939   14.2819 H         1 <0>         0.1700
     36 H12        19.4244   -1.9140   16.8802 H         1 <0>         0.1000
     37 H13        19.8475   -2.6749   15.2830 H         1 <0>         0.1300
     38 H14        22.2055    0.2206   15.7329 H         1 <0>         0.1300
     39 H15        21.1409    0.1938   17.2078 H         1 <0>         0.1000
     40 H16        19.9831    2.1690   15.1335 H         1 <0>         0.1400
     41 H17        20.2155    1.6680   16.8251 H         1 <0>         0.1400
     42 H18        18.6977    3.6241   16.6749 H         1 <0>         0.1200
     43 H19        17.8407    2.1980   17.3082 H         1 <0>         0.1000
     44 H20        12.7014    5.5846   18.8563 H         1 <0>         0.1500
     45 H21        11.2488    7.8819   18.2480 H         1 <0>         0.4200
@<TRIPOS>BOND
     1    1    2 2
     2    2   25 am
     3    2    3 1
     4    3    4 1
     5    3   26 1
     6    3   27 1
     7    4   24 ar
     8    4    5 ar
     9    5    6 ar
    10    5   28 1
    11    6    7 1
    12    6   21 ar
    13    7    8 2
    14    7    9 am
    15    9   10 1
    16    9   29 1
    17   10   20 1
    18   10   11 1
    19   10   30 1
    20   11   12 1
    21   11   31 1
    22   11   32 1
    23   12   13 1
    24   12   33 1
    25   12   34 1
    26   13   14 1
    27   13   15 1
    28   13   19 1
    29   15   18 1
    30   15   16 1
    31   15   35 1
    32   16   17 1
    33   16   36 1
    34   16   37 1
    35   17   18 1
    36   18   38 1
    37   18   39 1
    38   19   20 1
    39   19   40 1
    40   19   41 1
    41   20   42 1
    42   20   43 1
    43   21   22 1
    44   21   23 ar
    45   23   24 ar
    46   23   44 1
    47   24   25 1
    48   25   45 1
##########                 Name:            smyd3_360
##########          Protonation:                 none
##########               SMILES:   C=C(C)C[NH+]1CCC(NC(=O)C2=CC3=C(C=C2Cl)NC(=O)C3)CC1
##########            Long Name:   NO_LONG_NAME
##########          FlexRecCode: 1
##########               Number:                  935
##########   Ligand Source File: /proj/zinc22/users/x_andlu/OGG1/revisions/docking/targets/smyd3/db2gen/split_par
##########                 Rank:                    1
##########               Setnum:                   22
##########             Matchnum:                   15
##########                Cloud:                    1
##########        Electrostatic:           -25.151878
##########                 Gist:             0.000000
##########        Van der Waals:           -33.746796
##########  Ligand Polar Desolv:             9.603294
########## Ligand Apolar Desolv:            -2.708718
##########      Internal Energy:             0.000000
##########      Receptor Energy:             0.000000
########## Receptor Desolvation:             0.000000
########## Receptor Hydrophobic:             0.000000
##########         Total Energy:           -52.004097
##########        Ligand Charge:             1.000000
##########            Arbitrary:    +999.9990
##########        Ligand Energy:             0.000000

@<TRIPOS>MOLECULE
smyd3_360      none
   47    49     0     0     0
SMALL
USER_CHARGES

@<TRIPOS>ATOM
      1 C1         19.8960   -2.3278   13.9233 C.2       1 <0>        -0.1200
      2 C2         19.8859   -1.8140   15.1283 C.2       1 <0>        -0.1900
      3 C3         19.1842   -2.5362   16.2494 C.3       1 <0>        -0.1300
      4 C4         20.5759   -0.5007   15.3932 C.3       1 <0>         0.0300
      5 N1         19.5961    0.4765   15.8864 N.4       1 <0>        -0.3800
      6 H1         19.1834    0.1337   16.7411 H         1 <0>         0.4200
      7 C5         20.2703    1.7537   16.1483 C.3       1 <0>        -0.0000
      8 C6         19.2709    2.7507   16.7387 C.3       1 <0>        -0.1600
      9 C7         18.1280    2.9697   15.7432 C.3       1 <0>         0.1400
     10 N2         17.1291    3.8644   16.3331 N.am      1 <0>        -0.7300
     11 C8         16.0263    4.1975   15.6337 C.2       1 <0>         0.5700
     12 O1         15.8603    3.7554   14.5132 O.2       1 <0>        -0.5000
     13 C9         15.0205    5.0986   16.2277 C.ar      1 <0>        -0.1700
     14 C10        14.7060    6.3113   15.6058 C.ar      1 <0>        -0.0200
     15 C11        13.7650    7.1400   16.1632 C.ar      1 <0>        -0.1500
     16 C12        13.1135    6.7933   17.3439 C.ar      1 <0>         0.2000
     17 C13        13.4272    5.5828   17.9644 C.ar      1 <0>        -0.1400
     18 C14        14.3697    4.7438   17.4144 C.ar      1 <0>         0.0600
     19 Cl1        14.7517    3.2412   18.1952 Cl        1 <0>        -0.0100
     20 N3         12.2119    7.7891   17.7051 N.am      1 <0>        -0.6600
     21 C15        12.2035    8.8119   16.8343 C.2       1 <0>         0.5300
     22 O2         11.5172    9.8096   16.9017 O.2       1 <0>        -0.4800
     23 C16        13.2110    8.4853   15.7524 C.3       1 <0>        -0.1100
     24 C17        17.4793    1.6209   15.4186 C.3       1 <0>        -0.1600
     25 C18        18.5455    0.6652   14.8789 C.3       1 <0>        -0.0100
     26 H2         19.4016   -3.2690   13.7334 H         1 <0>         0.1200
     27 H3         20.3989   -1.8101   13.1198 H         1 <0>         0.1100
     28 H4         19.2821   -1.9606   17.1699 H         1 <0>         0.0700
     29 H5         18.1286   -2.6510   16.0032 H         1 <0>         0.0800
     30 H6         19.6345   -3.5195   16.3862 H         1 <0>         0.0800
     31 H7         21.0230   -0.1325   14.4699 H         1 <0>         0.1300
     32 H8         21.3547   -0.6440   16.1422 H         1 <0>         0.1400
     33 H9         20.6708    2.1505   15.2155 H         1 <0>         0.1300
     34 H10        21.0852    1.5952   16.8547 H         1 <0>         0.1400
     35 H11        19.7730    3.6990   16.9307 H         1 <0>         0.1200
     36 H12        18.8699    2.3557   17.6721 H         1 <0>         0.0900
     37 H13        18.5213    3.4145   14.8290 H         1 <0>         0.1100
     38 H14        17.2616    4.2172   17.2268 H         1 <0>         0.4000
     39 H15        15.2022    6.5946   14.6893 H         1 <0>         0.1400
     40 H16        12.9283    5.3033   18.8806 H         1 <0>         0.1500
     41 H17        11.6524    7.7495   18.4964 H         1 <0>         0.4200
     42 H18        14.0030    9.2338   15.7293 H         1 <0>         0.1300
     43 H19        12.7205    8.4163   14.7815 H         1 <0>         0.1300
     44 H20        17.0402    1.2012   16.3236 H         1 <0>         0.0900
     45 H21        16.7018    1.7623   14.6678 H         1 <0>         0.1200
     46 H22        18.9828    1.0851   13.9731 H         1 <0>         0.1300
     47 H23        18.0870   -0.2965   14.6483 H         1 <0>         0.1400
@<TRIPOS>BOND
     1    1    2 2
     2    1   26 1
     3    1   27 1
     4    2    3 1
     5    2    4 1
     6    3   28 1
     7    3   29 1
     8    3   30 1
     9    4    5 1
    10    4   31 1
    11    4   32 1
    12    5    6 1
    13    5   25 1
    14    5    7 1
    15    7    8 1
    16    7   33 1
    17    7   34 1
    18    8    9 1
    19    8   35 1
    20    8   36 1
    21    9   10 1
    22    9   24 1
    23    9   37 1
    24   10   11 am
    25   10   38 1
    26   11   12 2
    27   11   13 1
    28   13   18 ar
    29   13   14 ar
    30   14   15 ar
    31   14   39 1
    32   15   23 1
    33   15   16 ar
    34   16   17 ar
    35   16   20 1
    36   17   18 ar
    37   17   40 1
    38   18   19 1
    39   20   21 am
    40   20   41 1
    41   21   22 2
    42   21   23 1
    43   23   42 1
    44   23   43 1
    45   24   25 1
    46   24   44 1
    47   24   45 1
    48   25   46 1
    49   25   47 1
##########                 Name:            smyd3_361
##########          Protonation:                 none
##########               SMILES:   NC(=O)C[NH+]1CCC(NC(=O)C2=C(Cl)C=C3NC(=O)CC3=C2)CC1
##########            Long Name:   NO_LONG_NAME
##########          FlexRecCode: 1
##########               Number:                  937
##########   Ligand Source File: /proj/zinc22/users/x_andlu/OGG1/revisions/docking/targets/smyd3/db2gen/split_par
##########                 Rank:                    1
##########               Setnum:                    4
##########             Matchnum:                   14
##########                Cloud:                    1
##########        Electrostatic:           -28.890923
##########                 Gist:             0.000000
##########        Van der Waals:           -32.554489
##########  Ligand Polar Desolv:             7.961491
########## Ligand Apolar Desolv:            -1.142277
##########      Internal Energy:             0.000000
##########      Receptor Energy:             0.000000
########## Receptor Desolvation:             0.000000
########## Receptor Hydrophobic:             0.000000
##########         Total Energy:           -54.626198
##########        Ligand Charge:             1.000000
##########            Arbitrary:    +999.9990
##########        Ligand Energy:             0.000000

@<TRIPOS>MOLECULE
smyd3_361      none
   44    46     0     0     0
SMALL
USER_CHARGES

@<TRIPOS>ATOM
      1 N1         21.6145   -2.3219   15.6878 N.am      1 <0>        -0.8200
      2 C1         21.1917   -1.2290   16.3536 C.2       1 <0>         0.5100
      3 O1         20.6635   -1.3469   17.4389 O.2       1 <0>        -0.5300
      4 C2         21.3754    0.1393   15.7495 C.3       1 <0>        -0.0300
      5 N2         20.2977    1.0259   16.2082 N.4       1 <0>        -0.3700
      6 H1         20.1101    0.8469   17.1833 H         1 <0>         0.4300
      7 C3         20.7112    2.4241   16.0396 C.3       1 <0>        -0.0100
      8 C4         19.6255    3.3511   16.5906 C.3       1 <0>        -0.1500
      9 C5         18.3194    3.1078   15.8289 C.3       1 <0>         0.1400
     10 N3         17.2564    3.9373   16.4018 N.am      1 <0>        -0.7300
     11 C6         16.2471    4.3728   15.6219 C.2       1 <0>         0.5700
     12 O2         16.2189    4.0770   14.4429 O.2       1 <0>        -0.5100
     13 C7         15.1768    5.2081   16.1988 C.ar      1 <0>        -0.1700
     14 C8         14.3863    4.7181   17.2435 C.ar      1 <0>         0.0600
     15 Cl1        14.6694    3.1235   17.8686 Cl        1 <0>        -0.0100
     16 C9         13.3841    5.4967   17.7774 C.ar      1 <0>        -0.1400
     17 C10        13.1485    6.7796   17.2810 C.ar      1 <0>         0.2000
     18 N4         12.2099    7.7364   17.6528 N.am      1 <0>        -0.6600
     19 C11        12.3080    8.8600   16.9232 C.2       1 <0>         0.5300
     20 O3         11.6191    9.8522   17.0325 O.2       1 <0>        -0.4800
     21 C12        13.4399    8.6556   15.9388 C.3       1 <0>        -0.1100
     22 C13        13.9396    7.2611   16.2406 C.ar      1 <0>        -0.1500
     23 C14        14.9409    6.4943   15.7012 C.ar      1 <0>        -0.0200
     24 C15        17.9361    1.6299   15.9482 C.3       1 <0>        -0.1600
     25 C16        19.0852    0.7667   15.4227 C.3       1 <0>        -0.0000
     26 H2         21.4963   -3.2026   16.0765 H         1 <0>         0.4100
     27 H3         22.0370   -2.2276   14.8197 H         1 <0>         0.4200
     28 H4         21.3458    0.0635   14.6625 H         1 <0>         0.1600
     29 H5         22.3377    0.5470   16.0591 H         1 <0>         0.1600
     30 H6         20.8629    2.6324   14.9804 H         1 <0>         0.1300
     31 H7         21.6423    2.5943   16.5799 H         1 <0>         0.1500
     32 H8         19.9336    4.3887   16.4627 H         1 <0>         0.1200
     33 H9         19.4732    3.1437   17.6498 H         1 <0>         0.1000
     34 H10        18.4565    3.3652   14.7787 H         1 <0>         0.1100
     35 H11        17.2791    4.1733   17.3423 H         1 <0>         0.4000
     36 H12        12.7773    5.1128   18.5842 H         1 <0>         0.1500
     37 H13        11.5577    7.6068   18.3592 H         1 <0>         0.4200
     38 H14        14.2288    9.3889   16.1061 H         1 <0>         0.1300
     39 H15        13.0714    8.7163   14.9148 H         1 <0>         0.1300
     40 H16        15.5453    6.8822   14.8946 H         1 <0>         0.1400
     41 H17        17.7478    1.3859   16.9938 H         1 <0>         0.0900
     42 H18        17.0375    1.4385   15.3616 H         1 <0>         0.1200
     43 H19        19.2715    1.0102   14.3767 H         1 <0>         0.1400
     44 H20        18.8158   -0.2861   15.5077 H         1 <0>         0.1400
@<TRIPOS>BOND
     1    1    2 am
     2    1   26 1
     3    1   27 1
     4    2    3 2
     5    2    4 1
     6    4    5 1
     7    4   28 1
     8    4   29 1
     9    5    6 1
    10    5   25 1
    11    5    7 1
    12    7    8 1
    13    7   30 1
    14    7   31 1
    15    8    9 1
    16    8   32 1
    17    8   33 1
    18    9   10 1
    19    9   24 1
    20    9   34 1
    21   10   11 am
    22   10   35 1
    23   11   12 2
    24   11   13 1
    25   13   23 ar
    26   13   14 ar
    27   14   15 1
    28   14   16 ar
    29   16   17 ar
    30   16   36 1
    31   17   22 ar
    32   17   18 1
    33   18   19 am
    34   18   37 1
    35   19   20 2
    36   19   21 1
    37   21   22 1
    38   21   38 1
    39   21   39 1
    40   22   23 ar
    41   23   40 1
    42   24   25 1
    43   24   41 1
    44   24   42 1
    45   25   43 1
    46   25   44 1
##########                 Name:            smyd3_362
##########          Protonation:                 none
##########               SMILES:   CC(C)C[NH+]1CCC(NC(=O)C2=CC3=C(C=C2Cl)NC(=O)C3)CC1
##########            Long Name:   NO_LONG_NAME
##########          FlexRecCode: 1
##########               Number:                  940
##########   Ligand Source File: /proj/zinc22/users/x_andlu/OGG1/revisions/docking/targets/smyd3/db2gen/split_par
##########                 Rank:                    1
##########               Setnum:                    2
##########             Matchnum:                    7
##########                Cloud:                    1
##########        Electrostatic:           -27.420231
##########                 Gist:             0.000000
##########        Van der Waals:           -28.349287
##########  Ligand Polar Desolv:             8.949330
########## Ligand Apolar Desolv:            -2.579929
##########      Internal Energy:             0.000000
##########      Receptor Energy:             0.000000
########## Receptor Desolvation:             0.000000
########## Receptor Hydrophobic:             0.000000
##########         Total Energy:           -49.400116
##########        Ligand Charge:             1.000000
##########            Arbitrary:    +999.9990
##########        Ligand Energy:             0.000000

@<TRIPOS>MOLECULE
smyd3_362      none
   49    51     0     0     0
SMALL
USER_CHARGES

@<TRIPOS>ATOM
      1 C1         20.3820   -1.4477   17.6825 C.3       1 <0>        -0.1500
      2 C2         21.2227   -0.7816   16.5914 C.3       1 <0>        -0.1200
      3 C3         22.2533   -1.7801   16.0606 C.3       1 <0>        -0.1700
      4 C4         20.3108   -0.3334   15.4475 C.3       1 <0>        -0.0100
      5 N1         19.3212    0.6253   15.9571 N.4       1 <0>        -0.3900
      6 H1         19.0001    0.3249   16.8652 H         1 <0>         0.4200
      7 C5         18.1816    0.6872   15.0342 C.3       1 <0>        -0.0100
      8 C6         17.1118    1.6231   15.6007 C.3       1 <0>        -0.1600
      9 C7         17.7066    3.0235   15.7744 C.3       1 <0>         0.1400
     10 N2         16.7107    3.9062   16.3873 N.am      1 <0>        -0.7300
     11 C8         15.8667    4.6124   15.6095 C.2       1 <0>         0.5700
     12 O1         15.9316    4.5171   14.3989 O.2       1 <0>        -0.5000
     13 C9         14.8639    5.5012   16.2266 C.ar      1 <0>        -0.1700
     14 C10        14.8666    6.8710   15.9427 C.ar      1 <0>        -0.0200
     15 C11        13.9298    7.6894   16.5217 C.ar      1 <0>        -0.1500
     16 C12        12.9707    7.1782   17.3921 C.ar      1 <0>         0.2000
     17 C13        12.9681    5.8112   17.6752 C.ar      1 <0>        -0.1400
     18 C14        13.8995    4.9797   17.0955 C.ar      1 <0>         0.0600
     19 Cl1        13.8818    3.2803   17.4497 Cl        1 <0>        -0.0100
     20 N3         12.1404    8.1984   17.8446 N.am      1 <0>        -0.6600
     21 C15        12.4740    9.3947   17.3326 C.2       1 <0>         0.5300
     22 O2         11.9230   10.4520   17.5542 O.2       1 <0>        -0.4800
     23 C16        13.6667    9.1750   16.4262 C.3       1 <0>        -0.1100
     24 C17        18.9388    2.9354   16.6794 C.3       1 <0>        -0.1600
     25 C18        19.9410    1.9509   16.0729 C.3       1 <0>        -0.0000
     26 H2         19.6478   -0.7364   18.0607 H         1 <0>         0.0700
     27 H3         19.8677   -2.3142   17.2667 H         1 <0>         0.0800
     28 H4         21.0314   -1.7673   18.4973 H         1 <0>         0.0700
     29 H5         21.7368    0.0849   17.0070 H         1 <0>         0.0900
     30 H6         22.8522   -1.3056   15.2833 H         1 <0>         0.0500
     31 H7         22.9029   -2.0996   16.8756 H         1 <0>         0.0800
     32 H8         21.7391   -2.6467   15.6449 H         1 <0>         0.0700
     33 H9         20.9096    0.1412   14.6700 H         1 <0>         0.1300
     34 H10        19.7966   -1.1999   15.0319 H         1 <0>         0.1300
     35 H11        18.5175    1.0629   14.0676 H         1 <0>         0.1300
     36 H12        17.7614   -0.3107   14.9091 H         1 <0>         0.1400
     37 H13        16.7751    1.2482   16.5672 H         1 <0>         0.0900
     38 H14        16.2672    1.6690   14.9131 H         1 <0>         0.1200
     39 H15        17.9963    3.4209   14.8017 H         1 <0>         0.1100
     40 H16        16.6588    3.9821   17.3529 H         1 <0>         0.4000
     41 H17        15.6037    7.2830   15.2696 H         1 <0>         0.1400
     42 H18        12.2292    5.4034   18.3490 H         1 <0>         0.1500
     43 H19        11.4034    8.0614   18.4603 H         1 <0>         0.4200
     44 H20        14.5278    9.7396   16.7842 H         1 <0>         0.1300
     45 H21        13.4243    9.4551   15.4010 H         1 <0>         0.1300
     46 H22        18.6400    2.5878   17.6684 H         1 <0>         0.0900
     47 H23        19.4005    3.9193   16.7636 H         1 <0>         0.1200
     48 H24        20.8196    1.8859   16.7146 H         1 <0>         0.1400
     49 H25        20.2387    2.2999   15.0840 H         1 <0>         0.1300
@<TRIPOS>BOND
     1    1    2 1
     2    1   26 1
     3    1   27 1
     4    1   28 1
     5    2    3 1
     6    2    4 1
     7    2   29 1
     8    3   30 1
     9    3   31 1
    10    3   32 1
    11    4    5 1
    12    4   33 1
    13    4   34 1
    14    5    6 1
    15    5   25 1
    16    5    7 1
    17    7    8 1
    18    7   35 1
    19    7   36 1
    20    8    9 1
    21    8   37 1
    22    8   38 1
    23    9   10 1
    24    9   24 1
    25    9   39 1
    26   10   11 am
    27   10   40 1
    28   11   12 2
    29   11   13 1
    30   13   18 ar
    31   13   14 ar
    32   14   15 ar
    33   14   41 1
    34   15   23 1
    35   15   16 ar
    36   16   17 ar
    37   16   20 1
    38   17   18 ar
    39   17   42 1
    40   18   19 1
    41   20   21 am
    42   20   43 1
    43   21   22 2
    44   21   23 1
    45   23   44 1
    46   23   45 1
    47   24   25 1
    48   24   46 1
    49   24   47 1
    50   25   48 1
    51   25   49 1
##########                 Name:            smyd3_363
##########          Protonation:                 none
##########               SMILES:   O=C1CC2=CC(C(=O)NC3CCN(CC(F)F)CC3)=C(Cl)C=C2N1
##########            Long Name:   NO_LONG_NAME
##########          FlexRecCode: 1
##########               Number:                  942
##########   Ligand Source File: /proj/zinc22/users/x_andlu/OGG1/revisions/docking/targets/smyd3/db2gen/split_par
##########                 Rank:                    1
##########               Setnum:                   18
##########             Matchnum:                    9
##########                Cloud:                    1
##########        Electrostatic:           -21.238192
##########                 Gist:             0.000000
##########        Van der Waals:           -28.625486
##########  Ligand Polar Desolv:             6.879010
########## Ligand Apolar Desolv:            -1.131348
##########      Internal Energy:             0.000000
##########      Receptor Energy:             0.000000
########## Receptor Desolvation:             0.000000
########## Receptor Hydrophobic:             0.000000
##########         Total Energy:           -44.116016
##########        Ligand Charge:             0.000000
##########            Arbitrary:    +999.9990
##########        Ligand Energy:             0.000000

@<TRIPOS>MOLECULE
smyd3_363      none
   42    44     0     0     0
SMALL
USER_CHARGES

@<TRIPOS>ATOM
      1 O1         11.2085    9.6599   17.2315 O.2       1 <0>        -0.4900
      2 C1         12.0095    8.7586   17.0997 C.2       1 <0>         0.5300
      3 C2         13.0742    8.6519   16.0288 C.3       1 <0>        -0.1100
      4 C3         13.7746    7.3483   16.3383 C.ar      1 <0>        -0.1500
      5 C4         14.8202    6.6894   15.7433 C.ar      1 <0>        -0.0200
      6 C5         15.2618    5.4693   16.2667 C.ar      1 <0>        -0.1500
      7 C6         16.3857    4.7527   15.6347 C.2       1 <0>         0.5600
      8 O2         16.3041    4.3957   14.4753 O.2       1 <0>        -0.5100
      9 N1         17.5031    4.4937   16.3426 N.am      1 <0>        -0.7200
     10 C7         18.6193    3.7820   15.7148 C.3       1 <0>         0.1500
     11 C8         18.8976    2.4873   16.4835 C.3       1 <0>        -0.1300
     12 C9         20.1037    1.7798   15.8614 C.3       1 <0>         0.0500
     13 N2         21.2745    2.6646   15.9146 N.3       1 <0>        -0.5300
     14 C10        22.4821    1.9680   15.4517 C.3       1 <0>         0.0100
     15 C11        23.7226    2.6991   15.9692 C.3       1 <0>         0.2200
     16 F1         23.9800    3.8108   15.1598 F         1 <0>        -0.2000
     17 F2         23.5004    3.1210   17.2844 F         1 <0>        -0.2000
     18 C12        21.0471    3.8931   15.1430 C.3       1 <0>         0.0400
     19 C13        19.8702    4.6645   15.7446 C.3       1 <0>        -0.1200
     20 C14        14.6298    4.9345   17.3941 C.ar      1 <0>         0.0500
     21 Cl1        15.1692    3.4214   18.0524 Cl        1 <0>        -0.0100
     22 C15        13.5809    5.6043   17.9830 C.ar      1 <0>        -0.1400
     23 C16        13.1406    6.8216   17.4611 C.ar      1 <0>         0.1900
     24 N3         12.1218    7.6710   17.8800 N.am      1 <0>        -0.6600
     25 H1         12.6187    8.6154   15.0392 H         1 <0>         0.1300
     26 H2         13.7703    9.4878   16.0973 H         1 <0>         0.1300
     27 H3         15.3009    7.1110   14.8729 H         1 <0>         0.1400
     28 H4         17.5682    4.7784   17.2676 H         1 <0>         0.4000
     29 H5         18.3652    3.5449   14.6818 H         1 <0>         0.0900
     30 H6         19.1123    2.7219   17.5261 H         1 <0>         0.0700
     31 H7         18.0247    1.8368   16.4287 H         1 <0>         0.0800
     32 H8         19.8825    1.5320   14.8231 H         1 <0>         0.0500
     33 H9         20.3140    0.8652   16.4160 H         1 <0>         0.0800
     34 H10        22.4791    0.9455   15.8295 H         1 <0>         0.1100
     35 H11        22.4975    1.9527   14.3619 H         1 <0>         0.1100
     36 H12        24.5788    2.0250   15.9436 H         1 <0>         0.1100
     37 H13        20.8215    3.6355   14.1082 H         1 <0>         0.0600
     38 H14        21.9428    4.5132   15.1759 H         1 <0>         0.0800
     39 H15        19.6919    5.5683   15.1623 H         1 <0>         0.0800
     40 H16        20.1007    4.9343   16.7752 H         1 <0>         0.0800
     41 H17        13.0966    5.1859   18.8528 H         1 <0>         0.1500
     42 H18        11.5550    7.4965   18.6476 H         1 <0>         0.4200
@<TRIPOS>BOND
     1    1    2 2
     2    2   24 am
     3    2    3 1
     4    3    4 1
     5    3   25 1
     6    3   26 1
     7    4   23 ar
     8    4    5 ar
     9    5    6 ar
    10    5   27 1
    11    6    7 1
    12    6   20 ar
    13    7    8 2
    14    7    9 am
    15    9   10 1
    16    9   28 1
    17   10   19 1
    18   10   11 1
    19   10   29 1
    20   11   12 1
    21   11   30 1
    22   11   31 1
    23   12   13 1
    24   12   32 1
    25   12   33 1
    26   13   14 1
    27   13   18 1
    28   14   15 1
    29   14   34 1
    30   14   35 1
    31   15   16 1
    32   15   17 1
    33   15   36 1
    34   18   19 1
    35   18   37 1
    36   18   38 1
    37   19   39 1
    38   19   40 1
    39   20   21 1
    40   20   22 ar
    41   22   23 ar
    42   22   41 1
    43   23   24 1
    44   24   42 1
##########                 Name:            smyd3_364
##########          Protonation:                 none
##########               SMILES:   CCCC[NH+]1CCC(NC(=O)C2=CC3=C(C=C2Cl)NC(=O)C3)CC1
##########            Long Name:   NO_LONG_NAME
##########          FlexRecCode: 1
##########               Number:                  945
##########   Ligand Source File: /proj/zinc22/users/x_andlu/OGG1/revisions/docking/targets/smyd3/db2gen/split_par
##########                 Rank:                    1
##########               Setnum:                   40
##########             Matchnum:                    5
##########                Cloud:                    1
##########        Electrostatic:           -25.283201
##########                 Gist:             0.000000
##########        Van der Waals:           -33.359085
##########  Ligand Polar Desolv:             9.331326
########## Ligand Apolar Desolv:            -2.733827
##########      Internal Energy:             0.000000
##########      Receptor Energy:             0.000000
########## Receptor Desolvation:             0.000000
########## Receptor Hydrophobic:             0.000000
##########         Total Energy:           -52.044788
##########        Ligand Charge:             1.000000
##########            Arbitrary:    +999.9990
##########        Ligand Energy:             0.000000

@<TRIPOS>MOLECULE
smyd3_364      none
   49    51     0     0     0
SMALL
USER_CHARGES

@<TRIPOS>ATOM
      1 C1         21.2413   -2.7189   13.4563 C.3       1 <0>        -0.1600
      2 C2         21.0080   -2.9622   14.9487 C.3       1 <0>        -0.1200
      3 C3         19.9958   -1.9450   15.4794 C.3       1 <0>        -0.1500
      4 C4         20.5386   -0.5296   15.2721 C.3       1 <0>        -0.0100
      5 N1         19.5666    0.4470   15.7815 N.4       1 <0>        -0.3800
      6 H1         19.1671    0.1033   16.6420 H         1 <0>         0.4200
      7 C5         20.2448    1.7239   16.0344 C.3       1 <0>        -0.0000
      8 C6         19.2547    2.7203   16.6413 C.3       1 <0>        -0.1600
      9 C7         18.0966    2.9404   15.6639 C.3       1 <0>         0.1400
     10 N2         17.1070    3.8346   16.2701 N.am      1 <0>        -0.7300
     11 C8         15.9935    4.1684   15.5883 C.2       1 <0>         0.5700
     12 O1         15.8102    3.7276   14.4700 O.2       1 <0>        -0.5000
     13 C9         14.9970    5.0689   16.1988 C.ar      1 <0>        -0.1700
     14 C10        14.6730    6.2824   15.5833 C.ar      1 <0>        -0.0200
     15 C11        13.7409    7.1104   16.1561 C.ar      1 <0>        -0.1500
     16 C12        13.1077    6.7625   17.3463 C.ar      1 <0>         0.2000
     17 C13        13.4308    5.5511   17.9605 C.ar      1 <0>        -0.1400
     18 C14        14.3647    4.7128   17.3951 C.ar      1 <0>         0.0600
     19 Cl1        14.7587    3.2092   18.1681 Cl        1 <0>        -0.0100
     20 N3         12.2118    7.7579   17.7226 N.am      1 <0>        -0.6600
     21 C15        12.1900    8.7817   16.8531 C.2       1 <0>         0.5300
     22 O2         11.5049    9.7793   16.9323 O.2       1 <0>        -0.4800
     23 C16        13.1806    8.4562   15.7555 C.3       1 <0>        -0.1100
     24 C17        17.4429    1.5921   15.3478 C.3       1 <0>        -0.1600
     25 C18        18.5005    0.6369   14.7905 C.3       1 <0>        -0.0100
     26 H2         21.9624   -3.4436   13.0784 H         1 <0>         0.0600
     27 H3         20.2995   -2.8293   12.9187 H         1 <0>         0.0700
     28 H4         21.6279   -1.7106   13.3085 H         1 <0>         0.0600
     29 H5         21.9499   -2.8521   15.4864 H         1 <0>         0.0700
     30 H6         20.6213   -3.9705   15.0964 H         1 <0>         0.0700
     31 H7         19.8296   -2.1184   16.5426 H         1 <0>         0.0900
     32 H8         19.0540   -2.0554   14.9417 H         1 <0>         0.0900
     33 H9         20.7046   -0.3563   14.2089 H         1 <0>         0.1300
     34 H10        21.4803   -0.4192   15.8096 H         1 <0>         0.1300
     35 H11        20.6309    2.1218   15.0959 H         1 <0>         0.1300
     36 H12        21.0706    1.5646   16.7279 H         1 <0>         0.1400
     37 H13        19.7599    3.6683   16.8266 H         1 <0>         0.1200
     38 H14        18.8682    2.3242   17.5804 H         1 <0>         0.0900
     39 H15        18.4757    3.3863   14.7442 H         1 <0>         0.1100
     40 H16        17.2533    4.1863   17.1622 H         1 <0>         0.4000
     41 H17        15.1550    6.5666   14.6595 H         1 <0>         0.1400
     42 H18        12.9462    5.2707   18.8840 H         1 <0>         0.1500
     43 H19        11.6646    7.7174   18.5224 H         1 <0>         0.4200
     44 H20        13.9723    9.2047   15.7209 H         1 <0>         0.1300
     45 H21        12.6751    8.3884   14.7922 H         1 <0>         0.1300
     46 H22        17.0178    1.1713   16.2590 H         1 <0>         0.0900
     47 H23        16.6539    1.7343   14.6093 H         1 <0>         0.1200
     48 H24        18.9238    1.0579   13.8786 H         1 <0>         0.1300
     49 H25        18.0384   -0.3245   14.5660 H         1 <0>         0.1400
@<TRIPOS>BOND
     1    1    2 1
     2    1   26 1
     3    1   27 1
     4    1   28 1
     5    2    3 1
     6    2   29 1
     7    2   30 1
     8    3    4 1
     9    3   31 1
    10    3   32 1
    11    4    5 1
    12    4   33 1
    13    4   34 1
    14    5    6 1
    15    5   25 1
    16    5    7 1
    17    7    8 1
    18    7   35 1
    19    7   36 1
    20    8    9 1
    21    8   37 1
    22    8   38 1
    23    9   10 1
    24    9   24 1
    25    9   39 1
    26   10   11 am
    27   10   40 1
    28   11   12 2
    29   11   13 1
    30   13   18 ar
    31   13   14 ar
    32   14   15 ar
    33   14   41 1
    34   15   23 1
    35   15   16 ar
    36   16   17 ar
    37   16   20 1
    38   17   18 ar
    39   17   42 1
    40   18   19 1
    41   20   21 am
    42   20   43 1
    43   21   22 2
    44   21   23 1
    45   23   44 1
    46   23   45 1
    47   24   25 1
    48   24   46 1
    49   24   47 1
    50   25   48 1
    51   25   49 1
##########                 Name:            smyd3_365
##########          Protonation:                 none
##########               SMILES:   O=C1CC2=CC(C(=O)NC3CC[NH+](CCCF)CC3)=C(Cl)C=C2N1
##########            Long Name:   NO_LONG_NAME
##########          FlexRecCode: 1
##########               Number:                  946
##########   Ligand Source File: /proj/zinc22/users/x_andlu/OGG1/revisions/docking/targets/smyd3/db2gen/split_par
##########                 Rank:                    1
##########               Setnum:                   50
##########             Matchnum:                   16
##########                Cloud:                    1
##########        Electrostatic:           -26.089649
##########                 Gist:             0.000000
##########        Van der Waals:           -33.031315
##########  Ligand Polar Desolv:            10.958914
########## Ligand Apolar Desolv:            -2.558117
##########      Internal Energy:             0.000000
##########      Receptor Energy:             0.000000
########## Receptor Desolvation:             0.000000
########## Receptor Hydrophobic:             0.000000
##########         Total Energy:           -50.720165
##########        Ligand Charge:             1.000000
##########            Arbitrary:    +999.9990
##########        Ligand Energy:             0.000000

@<TRIPOS>MOLECULE
smyd3_365      none
   46    48     0     0     0
SMALL
USER_CHARGES

@<TRIPOS>ATOM
      1 O1         11.5843    9.8839   16.8482 O.2       1 <0>        -0.4800
      2 C1         12.2543    8.8753   16.7810 C.2       1 <0>         0.5300
      3 C2         13.2728    8.5422   15.7116 C.3       1 <0>        -0.1100
      4 C3         13.7978    7.1837   16.1171 C.ar      1 <0>        -0.1500
      5 C4         14.7326    6.3448   15.5659 C.ar      1 <0>        -0.0200
      6 C5         15.0168    5.1204   16.1804 C.ar      1 <0>        -0.1700
      7 C6         16.0162    4.2081   15.5927 C.2       1 <0>         0.5700
      8 O2         15.8600    3.7800   14.4654 O.2       1 <0>        -0.5000
      9 N1         17.1023    3.8492   16.3054 N.am      1 <0>        -0.7300
     10 C7         18.0948    2.9433   15.7218 C.3       1 <0>         0.1400
     11 C8         17.4282    1.6092   15.3737 C.3       1 <0>        -0.1600
     12 C9         18.4861    0.6406   14.8406 C.3       1 <0>        -0.0100
     13 N2         19.5178    0.4239   15.8623 N.4       1 <0>        -0.3800
     14 H1         19.0861    0.0799   16.7068 H         1 <0>         0.4200
     15 C10        20.4881   -0.5650   15.3741 C.3       1 <0>        -0.0100
     16 C11        19.7701   -1.8848   15.0854 C.3       1 <0>        -0.1900
     17 C12        20.7807   -2.9148   14.5770 C.3       1 <0>         0.0700
     18 F1         21.7646   -3.1224   15.5497 F         1 <0>        -0.2000
     19 C13        20.2095    1.6867   16.1472 C.3       1 <0>        -0.0000
     20 C14        19.2182    2.6949   16.7323 C.3       1 <0>        -0.1600
     21 C15        14.3421    4.7653   17.3530 C.ar      1 <0>         0.0600
     22 Cl1        14.6859    3.2484   18.1240 Cl        1 <0>        -0.0100
     23 C16        13.4058    5.6154   17.8976 C.ar      1 <0>        -0.1400
     24 C17        13.1220    6.8366   17.2845 C.ar      1 <0>         0.2000
     25 N3         12.2319    7.8441   17.6417 N.am      1 <0>        -0.6600
     26 H2         14.0775    9.2774   15.7081 H         1 <0>         0.1300
     27 H3         12.7962    8.4911   14.7326 H         1 <0>         0.1300
     28 H4         15.2476    6.6285   14.6600 H         1 <0>         0.1400
     29 H5         17.2270    4.1908   17.2046 H         1 <0>         0.4000
     30 H6         18.5096    3.3903   14.8182 H         1 <0>         0.1100
     31 H7         16.9681    1.1881   16.2676 H         1 <0>         0.0900
     32 H8         16.6649    1.7712   14.6126 H         1 <0>         0.1200
     33 H9         18.9445    1.0618   13.9459 H         1 <0>         0.1300
     34 H10        18.0149   -0.3107   14.5935 H         1 <0>         0.1400
     35 H11        20.9533   -0.1970   14.4597 H         1 <0>         0.1400
     36 H12        21.2547   -0.7267   16.1319 H         1 <0>         0.1400
     37 H13        19.3048   -2.2530   15.9998 H         1 <0>         0.1000
     38 H14        19.0035   -1.7232   14.3275 H         1 <0>         0.1000
     39 H15        20.2690   -3.8550   14.3713 H         1 <0>         0.0900
     40 H16        21.2458   -2.5467   13.6624 H         1 <0>         0.0900
     41 H17        20.6311    2.0857   15.2246 H         1 <0>         0.1300
     42 H18        21.0106    1.5073   16.8643 H         1 <0>         0.1400
     43 H19        19.7335    3.6324   16.9415 H         1 <0>         0.1200
     44 H20        18.7962    2.2976   17.6554 H         1 <0>         0.1000
     45 H21        12.8884    5.3357   18.8033 H         1 <0>         0.1500
     46 H22        11.6594    7.8061   18.4238 H         1 <0>         0.4200
@<TRIPOS>BOND
     1    1    2 2
     2    2   25 am
     3    2    3 1
     4    3    4 1
     5    3   26 1
     6    3   27 1
     7    4   24 ar
     8    4    5 ar
     9    5    6 ar
    10    5   28 1
    11    6    7 1
    12    6   21 ar
    13    7    8 2
    14    7    9 am
    15    9   10 1
    16    9   29 1
    17   10   20 1
    18   10   11 1
    19   10   30 1
    20   11   12 1
    21   11   31 1
    22   11   32 1
    23   12   13 1
    24   12   33 1
    25   12   34 1
    26   13   14 1
    27   13   15 1
    28   13   19 1
    29   15   16 1
    30   15   35 1
    31   15   36 1
    32   16   17 1
    33   16   37 1
    34   16   38 1
    35   17   18 1
    36   17   39 1
    37   17   40 1
    38   19   20 1
    39   19   41 1
    40   19   42 1
    41   20   43 1
    42   20   44 1
    43   21   22 1
    44   21   23 ar
    45   23   24 ar
    46   23   45 1
    47   24   25 1
    48   25   46 1
##########                 Name:            smyd3_366
##########          Protonation:                 none
##########               SMILES:   O=C1CC2=CC(C(=O)NC3CC[NH+](CCCO)CC3)=C(Cl)C=C2N1
##########            Long Name:   NO_LONG_NAME
##########          FlexRecCode: 1
##########               Number:                  948
##########   Ligand Source File: /proj/zinc22/users/x_andlu/OGG1/revisions/docking/targets/smyd3/db2gen/split_par
##########                 Rank:                    1
##########               Setnum:                   89
##########             Matchnum:                    7
##########                Cloud:                    1
##########        Electrostatic:           -25.718086
##########                 Gist:             0.000000
##########        Van der Waals:           -33.621128
##########  Ligand Polar Desolv:             9.473731
########## Ligand Apolar Desolv:            -1.752271
##########      Internal Energy:             0.000000
##########      Receptor Energy:             0.000000
########## Receptor Desolvation:             0.000000
########## Receptor Hydrophobic:             0.000000
##########         Total Energy:           -51.617752
##########        Ligand Charge:             1.000000
##########            Arbitrary:    +999.9990
##########        Ligand Energy:             0.000000

@<TRIPOS>MOLECULE
smyd3_366      none
   47    49     0     0     0
SMALL
USER_CHARGES

@<TRIPOS>ATOM
      1 O1         11.7216   10.1028   17.2850 O.2       1 <0>        -0.4800
      2 C1         12.3461    9.0718   17.1520 C.2       1 <0>         0.5300
      3 C2         13.3297    8.7529   16.0463 C.3       1 <0>        -0.1100
      4 C3         13.8029    7.3540   16.3701 C.ar      1 <0>        -0.1500
      5 C4         14.6906    6.5068   15.7572 C.ar      1 <0>        -0.0200
      6 C5         14.9329    5.2408   16.3015 C.ar      1 <0>        -0.1700
      7 C6         15.8811    4.3194   15.6470 C.2       1 <0>         0.5700
      8 O2         15.6862    3.9582   14.5024 O.2       1 <0>        -0.5000
      9 N1         16.9636    3.8782   16.3178 N.am      1 <0>        -0.7300
     10 C7         17.9053    2.9632   15.6679 C.3       1 <0>         0.1400
     11 C8         17.1756    1.6785   15.2648 C.3       1 <0>        -0.1600
     12 C9         18.1810    0.6957   14.6608 C.3       1 <0>        -0.0100
     13 N2         19.2207    0.3822   15.6486 N.4       1 <0>        -0.3800
     14 H1         18.7900    0.0128   16.4829 H         1 <0>         0.4200
     15 C10        20.1385   -0.6195   15.0902 C.3       1 <0>        -0.0100
     16 C11        19.5109   -2.0096   15.2106 C.3       1 <0>        -0.1500
     17 C12        20.4668   -3.0530   14.6290 C.3       1 <0>         0.0800
     18 O3         21.7003   -3.0234   15.3498 O.3       1 <0>        -0.5700
     19 C13        19.9713    1.5981   15.9844 C.3       1 <0>        -0.0000
     20 C14        19.0352    2.6149   16.6411 C.3       1 <0>        -0.1600
     21 C15        14.2649    4.8532   17.4676 C.ar      1 <0>         0.0600
     22 Cl1        14.5570    3.2847   18.1518 Cl        1 <0>        -0.0100
     23 C16        13.3761    5.7121   18.0745 C.ar      1 <0>        -0.1400
     24 C17        13.1342    6.9748   17.5314 C.ar      1 <0>         0.2000
     25 N3         12.2950    7.9986   17.9585 N.am      1 <0>        -0.6600
     26 H2         14.1652    9.4528   16.0645 H         1 <0>         0.1300
     27 H3         12.8337    8.7735   15.0759 H         1 <0>         0.1300
     28 H4         15.2008    6.8158   14.8568 H         1 <0>         0.1400
     29 H5         17.1191    4.1664   17.2308 H         1 <0>         0.4000
     30 H6         18.3225    3.4393   14.7805 H         1 <0>         0.1100
     31 H7         16.7141    1.2307   16.1449 H         1 <0>         0.0900
     32 H8         16.4063    1.9124   14.5289 H         1 <0>         0.1200
     33 H9         18.6407    1.1438   13.7800 H         1 <0>         0.1300
     34 H10        17.6648   -0.2206   14.3744 H         1 <0>         0.1400
     35 H11        20.3260   -0.3953   14.0401 H         1 <0>         0.1300
     36 H12        21.0794   -0.5968   15.6400 H         1 <0>         0.1300
     37 H13        19.3234   -2.2339   16.2607 H         1 <0>         0.0900
     38 H14        18.5700   -2.0324   14.6607 H         1 <0>         0.1000
     39 H15        20.0195   -4.0434   14.7148 H         1 <0>         0.0600
     40 H16        20.6541   -2.8288   13.5789 H         1 <0>         0.0600
     41 H17        22.1547   -2.1705   15.3170 H         1 <0>         0.4000
     42 H18        20.3928    2.0270   15.0754 H         1 <0>         0.1300
     43 H19        20.7768    1.3476   16.6748 H         1 <0>         0.1400
     44 H20        19.5941    3.5176   16.8881 H         1 <0>         0.1200
     45 H21        18.6133    2.1877   17.5508 H         1 <0>         0.1000
     46 H22        12.8637    5.4071   18.9749 H         1 <0>         0.1500
     47 H23        11.7356    7.9437   18.7490 H         1 <0>         0.4200
@<TRIPOS>BOND
     1    1    2 2
     2    2   25 am
     3    2    3 1
     4    3    4 1
     5    3   26 1
     6    3   27 1
     7    4   24 ar
     8    4    5 ar
     9    5    6 ar
    10    5   28 1
    11    6    7 1
    12    6   21 ar
    13    7    8 2
    14    7    9 am
    15    9   10 1
    16    9   29 1
    17   10   20 1
    18   10   11 1
    19   10   30 1
    20   11   12 1
    21   11   31 1
    22   11   32 1
    23   12   13 1
    24   12   33 1
    25   12   34 1
    26   13   14 1
    27   13   15 1
    28   13   19 1
    29   15   16 1
    30   15   35 1
    31   15   36 1
    32   16   17 1
    33   16   37 1
    34   16   38 1
    35   17   18 1
    36   17   39 1
    37   17   40 1
    38   18   41 1
    39   19   20 1
    40   19   42 1
    41   19   43 1
    42   20   44 1
    43   20   45 1
    44   21   22 1
    45   21   23 ar
    46   23   24 ar
    47   23   46 1
    48   24   25 1
    49   25   47 1
##########                 Name:            smyd3_367
##########          Protonation:                 none
##########               SMILES:   O=C1CC2=CC(C(=O)NC3CC[NH+](CC4CC4)CC3)=C(Cl)C=C2N1
##########            Long Name:   NO_LONG_NAME
##########          FlexRecCode: 1
##########               Number:                  950
##########   Ligand Source File: /proj/zinc22/users/x_andlu/OGG1/revisions/docking/targets/smyd3/db2gen/split_par
##########                 Rank:                    1
##########               Setnum:                   35
##########             Matchnum:                    1
##########                Cloud:                    1
##########        Electrostatic:           -25.124878
##########                 Gist:             0.000000
##########        Van der Waals:           -32.938763
##########  Ligand Polar Desolv:             9.420922
########## Ligand Apolar Desolv:            -2.791410
##########      Internal Energy:             0.000000
##########      Receptor Energy:             0.000000
########## Receptor Desolvation:             0.000000
########## Receptor Hydrophobic:             0.000000
##########         Total Energy:           -51.434128
##########        Ligand Charge:             1.000000
##########            Arbitrary:    +999.9990
##########        Ligand Energy:             0.000000

@<TRIPOS>MOLECULE
smyd3_367      none
   47    50     0     0     0
SMALL
USER_CHARGES

@<TRIPOS>ATOM
      1 O1         11.7006    9.9644   16.9496 O.2       1 <0>        -0.4800
      2 C1         12.3608    8.9515   16.8565 C.2       1 <0>         0.5300
      3 C2         13.5022    8.7078   15.8923 C.3       1 <0>        -0.1100
      4 C3         13.9551    7.3008   16.2098 C.ar      1 <0>        -0.1500
      5 C4         14.9418    6.5015   15.6912 C.ar      1 <0>        -0.0200
      6 C5         15.1311    5.2117   16.1995 C.ar      1 <0>        -0.1700
      7 C6         16.1855    4.3416   15.6449 C.2       1 <0>         0.5700
      8 O2         16.1677    4.0401   14.4670 O.2       1 <0>        -0.5000
      9 N1         17.1685    3.8811   16.4437 N.am      1 <0>        -0.7300
     10 C7         18.2156    3.0171   15.8929 C.3       1 <0>         0.1400
     11 C8         17.5823    1.7444   15.3233 C.3       1 <0>        -0.1600
     12 C9         18.6871    0.8119   14.8219 C.3       1 <0>        -0.0100
     13 N2         19.5786    0.4611   15.9341 N.4       1 <0>        -0.3800
     14 H1         19.0385    0.0412   16.6758 H         1 <0>         0.4200
     15 C10        20.5907   -0.4948   15.4657 C.3       1 <0>         0.0300
     16 C11        19.8987   -1.7575   14.9480 C.3       1 <0>        -0.2200
     17 C12        19.6702   -2.8964   15.9437 C.3       1 <0>        -0.1700
     18 C13        20.7364   -3.0345   14.8551 C.3       1 <0>        -0.1500
     19 C14        20.2441    1.6683   16.4386 C.3       1 <0>        -0.0000
     20 C15        19.1993    2.6337   17.0022 C.3       1 <0>        -0.1600
     21 C16        14.3093    4.7515   17.2335 C.ar      1 <0>         0.0600
     22 Cl1        14.5343    3.1529   17.8716 Cl        1 <0>        -0.0100
     23 C17        13.3219    5.5626   17.7463 C.ar      1 <0>        -0.1400
     24 C18        13.1330    6.8491   17.2394 C.ar      1 <0>         0.2000
     25 N3         12.2172    7.8355   17.5905 N.am      1 <0>        -0.6600
     26 H2         14.3099    9.4182   16.0687 H         1 <0>         0.1300
     27 H3         13.1526    8.7734   14.8619 H         1 <0>         0.1300
     28 H4         15.5706    6.8665   14.8926 H         1 <0>         0.1400
     29 H5         17.1827    4.1218   17.3832 H         1 <0>         0.4000
     30 H6         18.7466    3.5468   15.1020 H         1 <0>         0.1100
     31 H7         17.0087    1.2430   16.1029 H         1 <0>         0.0900
     32 H8         16.9226    2.0051   14.4958 H         1 <0>         0.1200
     33 H9         19.2598    1.3141   14.0423 H         1 <0>         0.1300
     34 H10        18.2397   -0.0951   14.4156 H         1 <0>         0.1300
     35 H11        21.1721   -0.0436   14.6617 H         1 <0>         0.1300
     36 H12        21.2533   -0.7559   16.2909 H         1 <0>         0.1300
     37 H13        19.1391   -1.5971   14.1830 H         1 <0>         0.1300
     38 H14        20.0127   -2.7462   16.9675 H         1 <0>         0.1100
     39 H15        18.7597   -3.4856   15.8339 H         1 <0>         0.1100
     40 H16        20.5274   -3.7143   14.0292 H         1 <0>         0.1100
     41 H17        21.7804   -2.9750   15.1627 H         1 <0>         0.1100
     42 H18        20.7836    2.1523   15.6246 H         1 <0>         0.1300
     43 H19        20.9462    1.3934   17.2258 H         1 <0>         0.1400
     44 H20        19.6953    3.5299   17.3746 H         1 <0>         0.1200
     45 H21        18.6591    2.1515   17.8168 H         1 <0>         0.0900
     46 H22        12.6906    5.2015   18.5447 H         1 <0>         0.1500
     47 H23        11.5500    7.7295   18.2865 H         1 <0>         0.4200
@<TRIPOS>BOND
     1    1    2 2
     2    2   25 am
     3    2    3 1
     4    3    4 1
     5    3   26 1
     6    3   27 1
     7    4   24 ar
     8    4    5 ar
     9    5    6 ar
    10    5   28 1
    11    6    7 1
    12    6   21 ar
    13    7    8 2
    14    7    9 am
    15    9   10 1
    16    9   29 1
    17   10   20 1
    18   10   11 1
    19   10   30 1
    20   11   12 1
    21   11   31 1
    22   11   32 1
    23   12   13 1
    24   12   33 1
    25   12   34 1
    26   13   14 1
    27   13   15 1
    28   13   19 1
    29   15   16 1
    30   15   35 1
    31   15   36 1
    32   16   18 1
    33   16   17 1
    34   16   37 1
    35   17   18 1
    36   17   38 1
    37   17   39 1
    38   18   40 1
    39   18   41 1
    40   19   20 1
    41   19   42 1
    42   19   43 1
    43   20   44 1
    44   20   45 1
    45   21   22 1
    46   21   23 ar
    47   23   24 ar
    48   23   46 1
    49   24   25 1
    50   25   47 1
##########                 Name:            smyd3_368
##########          Protonation:                 none
##########               SMILES:   COCC[NH+]1CCC(NC(=O)C2=CC3=C(C=C2Cl)NC(=O)C3)CC1
##########            Long Name:   NO_LONG_NAME
##########          FlexRecCode: 1
##########               Number:                  956
##########   Ligand Source File: /proj/zinc22/users/x_andlu/OGG1/revisions/docking/targets/smyd3/db2gen/split_par
##########                 Rank:                    1
##########               Setnum:                   16
##########             Matchnum:                    4
##########                Cloud:                    1
##########        Electrostatic:           -28.943249
##########                 Gist:             0.000000
##########        Van der Waals:           -28.419777
##########  Ligand Polar Desolv:            10.919638
########## Ligand Apolar Desolv:            -1.932592
##########      Internal Energy:             0.000000
##########      Receptor Energy:             0.000000
########## Receptor Desolvation:             0.000000
########## Receptor Hydrophobic:             0.000000
##########         Total Energy:           -48.375980
##########        Ligand Charge:             1.000000
##########            Arbitrary:    +999.9990
##########        Ligand Energy:             0.000000

@<TRIPOS>MOLECULE
smyd3_368      none
   47    49     0     0     0
SMALL
USER_CHARGES

@<TRIPOS>ATOM
      1 C1         19.5078   -2.9865   15.6715 C.3       1 <0>         0.0300
      2 O1         20.0734   -1.7254   16.0347 O.3       1 <0>        -0.4000
      3 C2         20.7576   -1.0662   14.9673 C.3       1 <0>         0.0300
      4 C3         21.3194    0.2662   15.4673 C.3       1 <0>        -0.0000
      5 N1         20.2180    1.1149   15.9411 N.4       1 <0>        -0.3800
      6 H1         19.7362    0.6479   16.6946 H         1 <0>         0.4300
      7 C4         20.7587    2.3910   16.4246 C.3       1 <0>        -0.0100
      8 C5         19.6252    3.2468   16.9938 C.3       1 <0>        -0.1600
      9 C6         18.5920    3.5121   15.8950 C.3       1 <0>         0.1400
     10 N2         17.4667    4.2665   16.4524 N.am      1 <0>        -0.7300
     11 C7         16.4302    4.6120   15.6634 C.2       1 <0>         0.5700
     12 O2         16.4289    4.2976   14.4888 O.2       1 <0>        -0.5000
     13 C8         15.2970    5.3717   16.2247 C.ar      1 <0>        -0.1700
     14 C9         14.9657    6.6283   15.7070 C.ar      1 <0>        -0.0200
     15 C10        13.9064    7.3247   16.2322 C.ar      1 <0>        -0.1500
     16 C11        13.1506    6.8000   17.2773 C.ar      1 <0>         0.2000
     17 C12        13.4813    5.5457   17.7937 C.ar      1 <0>        -0.1400
     18 C13        14.5420    4.8384   17.2749 C.ar      1 <0>         0.0600
     19 Cl1        14.9438    3.2798   17.9253 Cl        1 <0>        -0.0100
     20 N3         12.1404    7.6878   17.6324 N.am      1 <0>        -0.6600
     21 C14        12.1553    8.8047   16.8862 C.2       1 <0>         0.5300
     22 O3         11.3922    9.7428   16.9785 O.2       1 <0>        -0.4800
     23 C15        13.3032    8.6724   15.9080 C.3       1 <0>        -0.1100
     24 C16        18.0892    2.1742   15.3447 C.3       1 <0>        -0.1600
     25 C17        19.2800    1.3574   14.8384 C.3       1 <0>        -0.0000
     26 H2         19.0064   -3.4222   16.5358 H         1 <0>         0.0600
     27 H3         18.7863   -2.8429   14.8672 H         1 <0>         0.0500
     28 H4         20.2992   -3.6561   15.3347 H         1 <0>         0.1000
     29 H5         20.0621   -0.8829   14.1483 H         1 <0>         0.1000
     30 H6         21.5748   -1.6961   14.6158 H         1 <0>         0.0700
     31 H7         21.8413    0.7689   14.6531 H         1 <0>         0.1400
     32 H8         22.0149    0.0828   16.2862 H         1 <0>         0.1400
     33 H9         21.2334    2.9204   15.5984 H         1 <0>         0.1300
     34 H10        21.4960    2.2000   17.2043 H         1 <0>         0.1300
     35 H11        20.0285    4.1946   17.3506 H         1 <0>         0.1200
     36 H12        19.1499    2.7191   17.8207 H         1 <0>         0.1000
     37 H13        19.0535    4.0863   15.0916 H         1 <0>         0.1100
     38 H14        17.4677    4.5176   17.3893 H         1 <0>         0.4000
     39 H15        15.5418    7.0490   14.8962 H         1 <0>         0.1400
     40 H16        12.9022    5.1287   18.6044 H         1 <0>         0.1500
     41 H17        11.4976    7.5194   18.3392 H         1 <0>         0.4200
     42 H18        14.0336    9.4660   16.0663 H         1 <0>         0.1300
     43 H19        12.9350    8.6896   14.8822 H         1 <0>         0.1300
     44 H20        17.5812    1.6230   16.1363 H         1 <0>         0.0900
     45 H21        17.3955    2.3560   14.5240 H         1 <0>         0.1200
     46 H22        19.7861    1.9087   14.0460 H         1 <0>         0.1300
     47 H23        18.9253    0.4038   14.4474 H         1 <0>         0.1400
@<TRIPOS>BOND
     1    1    2 1
     2    1   26 1
     3    1   27 1
     4    1   28 1
     5    2    3 1
     6    3    4 1
     7    3   29 1
     8    3   30 1
     9    4    5 1
    10    4   31 1
    11    4   32 1
    12    5    6 1
    13    5   25 1
    14    5    7 1
    15    7    8 1
    16    7   33 1
    17    7   34 1
    18    8    9 1
    19    8   35 1
    20    8   36 1
    21    9   10 1
    22    9   24 1
    23    9   37 1
    24   10   11 am
    25   10   38 1
    26   11   12 2
    27   11   13 1
    28   13   18 ar
    29   13   14 ar
    30   14   15 ar
    31   14   39 1
    32   15   23 1
    33   15   16 ar
    34   16   17 ar
    35   16   20 1
    36   17   18 ar
    37   17   40 1
    38   18   19 1
    39   20   21 am
    40   20   41 1
    41   21   22 2
    42   21   23 1
    43   23   42 1
    44   23   43 1
    45   24   25 1
    46   24   44 1
    47   24   45 1
    48   25   46 1
    49   25   47 1
##########                 Name:            smyd3_374
##########          Protonation:                 none
##########               SMILES:   O=C1CC2=C(C=CC(C(=O)NC3CCN(CC(F)(F)F)CC3)=C2)N1
##########            Long Name:   NO_LONG_NAME
##########          FlexRecCode: 1
##########               Number:                  968
##########   Ligand Source File: /proj/zinc22/users/x_andlu/OGG1/revisions/docking/targets/smyd3/db2gen/split_par
##########                 Rank:                    1
##########               Setnum:                   10
##########             Matchnum:                    7
##########                Cloud:                    1
##########        Electrostatic:           -20.491163
##########                 Gist:             0.000000
##########        Van der Waals:           -29.914291
##########  Ligand Polar Desolv:             5.662983
########## Ligand Apolar Desolv:            -1.533146
##########      Internal Energy:             0.000000
##########      Receptor Energy:             0.000000
########## Receptor Desolvation:             0.000000
########## Receptor Hydrophobic:             0.000000
##########         Total Energy:           -46.275620
##########        Ligand Charge:             0.000000
##########            Arbitrary:    +999.9990
##########        Ligand Energy:             0.000000

@<TRIPOS>MOLECULE
smyd3_374      none
   42    44     0     0     0
SMALL
USER_CHARGES

@<TRIPOS>ATOM
      1 O1         11.3854   10.0622   16.9375 O.2       1 <0>        -0.4900
      2 C1         12.0490    9.0489   16.8767 C.2       1 <0>         0.5300
      3 C2         12.9853    8.6532   15.7548 C.3       1 <0>        -0.1200
      4 C3         13.5418    7.3176   16.1928 C.ar      1 <0>        -0.1500
      5 C4         12.9517    7.0374   17.4255 C.ar      1 <0>         0.1700
      6 C5         13.2799    5.8490   18.0819 C.ar      1 <0>        -0.1500
      7 C6         14.1716    4.9678   17.5178 C.ar      1 <0>        -0.0500
      8 C7         14.7571    5.2543   16.2813 C.ar      1 <0>        -0.1600
      9 C8         15.7145    4.3084   15.6754 C.2       1 <0>         0.5700
     10 O2         15.8491    4.2696   14.4677 O.2       1 <0>        -0.5300
     11 N1         16.4397    3.4876   16.4608 N.am      1 <0>        -0.7200
     12 C9         17.3899    2.5487   15.8594 C.3       1 <0>         0.1400
     13 C10        16.6835    1.2217   15.5684 C.3       1 <0>        -0.1300
     14 C11        17.6954    0.2251   14.9984 C.3       1 <0>         0.0600
     15 N2         18.7828    0.0213   15.9640 N.3       1 <0>        -0.5300
     16 C12        19.7003   -1.0321   15.5093 C.3       1 <0>         0.0100
     17 C13        20.4970   -1.5642   16.7022 C.3       1 <0>         0.4600
     18 F1         19.6168   -2.0911   17.6533 F         1 <0>        -0.1700
     19 F2         21.3707   -2.5673   16.2691 F         1 <0>        -0.1800
     20 F3         21.2323   -0.5207   17.2748 F         1 <0>        -0.1800
     21 C14        19.5056    1.2734   16.2218 C.3       1 <0>         0.0400
     22 C15        18.5481    2.3007   16.8297 C.3       1 <0>        -0.1200
     23 C16        14.4295    6.4437   15.6228 C.ar      1 <0>        -0.0000
     24 N3         12.0906    8.0663   17.7920 N.am      1 <0>        -0.6600
     25 H1         12.4374    8.5503   14.8181 H         1 <0>         0.1300
     26 H2         13.7863    9.3849   15.6496 H         1 <0>         0.1300
     27 H3         12.8307    5.6211   19.0373 H         1 <0>         0.1400
     28 H4         14.4203    4.0510   18.0316 H         1 <0>         0.1400
     29 H5         16.3324    3.5186   17.4244 H         1 <0>         0.4000
     30 H6         17.7765    2.9670   14.9300 H         1 <0>         0.0900
     31 H7         16.2624    0.8236   16.4916 H         1 <0>         0.0800
     32 H8         15.8853    1.3855   14.8445 H         1 <0>         0.0800
     33 H9         18.1051    0.6172   14.0675 H         1 <0>         0.0500
     34 H10        17.1989   -0.7257   14.8046 H         1 <0>         0.0900
     35 H11        19.1273   -1.8450   15.0632 H         1 <0>         0.1200
     36 H12        20.3860   -0.6216   14.7683 H         1 <0>         0.0900
     37 H13        19.9068    1.6606   15.2851 H         1 <0>         0.0500
     38 H14        20.3239    1.0840   16.9164 H         1 <0>         0.1000
     39 H15        19.0812    3.2351   17.0065 H         1 <0>         0.0800
     40 H16        18.1572    1.9201   17.7733 H         1 <0>         0.0800
     41 H17        14.8764    6.6743   14.6669 H         1 <0>         0.1400
     42 H18        11.5782    8.0739   18.6157 H         1 <0>         0.4200
@<TRIPOS>BOND
     1    1    2 2
     2    2   24 am
     3    2    3 1
     4    3    4 1
     5    3   25 1
     6    3   26 1
     7    4   23 ar
     8    4    5 ar
     9    5    6 ar
    10    5   24 1
    11    6    7 ar
    12    6   27 1
    13    7    8 ar
    14    7   28 1
    15    8    9 1
    16    8   23 ar
    17    9   10 2
    18    9   11 am
    19   11   12 1
    20   11   29 1
    21   12   22 1
    22   12   13 1
    23   12   30 1
    24   13   14 1
    25   13   31 1
    26   13   32 1
    27   14   15 1
    28   14   33 1
    29   14   34 1
    30   15   16 1
    31   15   21 1
    32   16   17 1
    33   16   35 1
    34   16   36 1
    35   17   18 1
    36   17   19 1
    37   17   20 1
    38   21   22 1
    39   21   37 1
    40   21   38 1
    41   22   39 1
    42   22   40 1
    43   23   41 1
    44   24   42 1
##########                 Name:            smyd3_377
##########          Protonation:                 none
##########               SMILES:   CN(C(=O)C1=CC=C2NC(=O)CC2=C1)C1CCN(CC(F)F)CC1
##########            Long Name:   NO_LONG_NAME
##########          FlexRecCode: 1
##########               Number:                  973
##########   Ligand Source File: /proj/zinc22/users/x_andlu/OGG1/revisions/docking/targets/smyd3/db2gen/split_par
##########                 Rank:                    1
##########               Setnum:                   55
##########             Matchnum:                    7
##########                Cloud:                    1
##########        Electrostatic:           -13.135207
##########                 Gist:             0.000000
##########        Van der Waals:           -34.001034
##########  Ligand Polar Desolv:             6.368176
########## Ligand Apolar Desolv:            -1.959213
##########      Internal Energy:             0.000000
##########      Receptor Energy:             0.000000
########## Receptor Desolvation:             0.000000
########## Receptor Hydrophobic:             0.000000
##########         Total Energy:           -42.727280
##########        Ligand Charge:             0.000000
##########            Arbitrary:    +999.9990
##########        Ligand Energy:             0.000000

@<TRIPOS>MOLECULE
smyd3_377      none
   45    47     0     0     0
SMALL
USER_CHARGES

@<TRIPOS>ATOM
      1 C1         14.7816    2.8477   15.5963 C.3       1 <0>         0.0700
      2 N1         16.0857    3.3401   16.0470 N.am      1 <0>        -0.6100
      3 C2         16.2731    4.6585   16.2551 C.2       1 <0>         0.5700
      4 O1         17.3731    5.1497   16.0907 O.2       1 <0>        -0.5300
      5 C3         15.1428    5.5060   16.6827 C.ar      1 <0>        -0.1500
      6 C4         14.4756    5.2372   17.8807 C.ar      1 <0>        -0.0300
      7 C5         13.4232    6.0275   18.2792 C.ar      1 <0>        -0.1400
      8 C6         13.0122    7.1045   17.4912 C.ar      1 <0>         0.1700
      9 N2         11.9916    8.0298   17.6832 N.am      1 <0>        -0.6600
     10 C7         11.9166    8.9234   16.6829 C.2       1 <0>         0.5300
     11 O2         11.1245    9.8373   16.5915 O.2       1 <0>        -0.5000
     12 C8         13.0064    8.5756   15.6912 C.3       1 <0>        -0.1100
     13 C9         13.6841    7.3676   16.2968 C.ar      1 <0>        -0.1500
     14 C10        14.7321    6.5843   15.8918 C.ar      1 <0>        -0.0400
     15 C11        17.1862    2.3995   16.2713 C.3       1 <0>         0.1400
     16 C12        17.4960    1.6546   14.9700 C.3       1 <0>        -0.1200
     17 C13        18.6046    0.6309   15.2254 C.3       1 <0>         0.0600
     18 N3         18.1696   -0.3155   16.2605 N.3       1 <0>        -0.5300
     19 C14        19.1516   -1.3943   16.4337 C.3       1 <0>         0.0000
     20 C15        20.3083   -0.8965   17.3025 C.3       1 <0>         0.2700
     21 F1         19.9322   -0.9401   18.6493 F         1 <0>        -0.2000
     22 F2         21.4262   -1.7137   17.1038 F         1 <0>        -0.1900
     23 C16        17.9118    0.3707   17.5328 C.3       1 <0>         0.0400
     24 C17        16.7825    1.3867   17.3463 C.3       1 <0>        -0.1200
     25 H1         14.8214    1.7643   15.4838 H         1 <0>         0.0600
     26 H2         14.0207    3.1090   16.3316 H         1 <0>         0.0800
     27 H3         14.5324    3.3037   14.6381 H         1 <0>         0.0800
     28 H4         14.7878    4.4063   18.4958 H         1 <0>         0.1400
     29 H5         12.9122    5.8144   19.2066 H         1 <0>         0.1400
     30 H6         11.4009    8.0301   18.4526 H         1 <0>         0.4200
     31 H7         12.5754    8.3261   14.7217 H         1 <0>         0.1300
     32 H8         13.7119    9.4008   15.5937 H         1 <0>         0.1300
     33 H9         15.2408    6.8003   14.9639 H         1 <0>         0.1400
     34 H10        18.0709    2.9456   16.5991 H         1 <0>         0.1000
     35 H11        16.5996    1.1411   14.6223 H         1 <0>         0.0800
     36 H12        17.8253    2.3662   14.2127 H         1 <0>         0.0700
     37 H13        19.5049    1.1463   15.5597 H         1 <0>         0.0400
     38 H14        18.8174    0.0888   14.3040 H         1 <0>         0.0800
     39 H15        18.6739   -2.2461   16.9177 H         1 <0>         0.1100
     40 H16        19.5338   -1.6976   15.4589 H         1 <0>         0.0700
     41 H17        20.5543    0.1291   17.0271 H         1 <0>         0.1100
     42 H18        18.8154    0.8874   17.8564 H         1 <0>         0.0400
     43 H19        17.6216   -0.3604   18.2874 H         1 <0>         0.1000
     44 H20        16.6021    1.9069   18.2870 H         1 <0>         0.0700
     45 H21        15.8748    0.8691   17.0361 H         1 <0>         0.0800
@<TRIPOS>BOND
     1    1    2 1
     2    1   25 1
     3    1   26 1
     4    1   27 1
     5    2    3 am
     6    2   15 1
     7    3    4 2
     8    3    5 1
     9    5   14 ar
    10    5    6 ar
    11    6    7 ar
    12    6   28 1
    13    7    8 ar
    14    7   29 1
    15    8   13 ar
    16    8    9 1
    17    9   10 am
    18    9   30 1
    19   10   11 2
    20   10   12 1
    21   12   13 1
    22   12   31 1
    23   12   32 1
    24   13   14 ar
    25   14   33 1
    26   15   24 1
    27   15   16 1
    28   15   34 1
    29   16   17 1
    30   16   35 1
    31   16   36 1
    32   17   18 1
    33   17   37 1
    34   17   38 1
    35   18   19 1
    36   18   23 1
    37   19   20 1
    38   19   39 1
    39   19   40 1
    40   20   21 1
    41   20   22 1
    42   20   41 1
    43   23   24 1
    44   23   42 1
    45   23   43 1
    46   24   44 1
    47   24   45 1
##########                 Name:            smyd3_405
##########          Protonation:                 none
##########               SMILES:   CCC(=O)N1CCC(N(C)C(=O)C2=CC=C3NC(=O)CC3=C2)CC1
##########            Long Name:   NO_LONG_NAME
##########          FlexRecCode: 1
##########               Number:                 1052
##########   Ligand Source File: /proj/zinc22/users/x_andlu/OGG1/revisions/docking/targets/smyd3/db2gen/split_par
##########                 Rank:                    1
##########               Setnum:                  193
##########             Matchnum:                   17
##########                Cloud:                    1
##########        Electrostatic:           -12.830805
##########                 Gist:             0.000000
##########        Van der Waals:           -35.080597
##########  Ligand Polar Desolv:             7.582368
########## Ligand Apolar Desolv:            -2.233201
##########      Internal Energy:             0.000000
##########      Receptor Energy:             0.000000
########## Receptor Desolvation:             0.000000
########## Receptor Hydrophobic:             0.000000
##########         Total Energy:           -42.562233
##########        Ligand Charge:             0.000000
##########            Arbitrary:    +999.9990
##########        Ligand Energy:             0.000000

@<TRIPOS>MOLECULE
smyd3_405      none
   47    49     0     0     0
SMALL
USER_CHARGES

@<TRIPOS>ATOM
      1 C1         19.8207   -2.4575   14.5958 C.3       1 <0>        -0.1400
      2 C2         18.7916   -2.2363   15.7061 C.3       1 <0>        -0.1400
      3 C3         19.3160   -1.2133   16.6805 C.2       1 <0>         0.5100
      4 O1         19.9717   -1.5673   17.6373 O.2       1 <0>        -0.5400
      5 N1         19.0561    0.0953   16.4886 N.am      1 <0>        -0.6200
      6 C4         18.9441    1.0116   17.6315 C.3       1 <0>         0.1100
      7 C5         17.6071    1.7537   17.5397 C.3       1 <0>        -0.1400
      8 C6         17.4998    2.4360   16.1739 C.3       1 <0>         0.1400
      9 N2         16.2368    3.1741   16.0951 N.am      1 <0>        -0.6100
     10 C7         14.9633    2.4638   16.2371 C.3       1 <0>         0.0700
     11 C8         16.2463    4.5064   15.8918 C.2       1 <0>         0.5700
     12 O2         17.1483    5.0180   15.2571 O.2       1 <0>        -0.5300
     13 C9         15.1617    5.3443   16.4395 C.ar      1 <0>        -0.1500
     14 C10        14.5039    4.9654   17.6127 C.ar      1 <0>        -0.0600
     15 C11        13.4895    5.7433   18.1197 C.ar      1 <0>        -0.1500
     16 C12        13.1080    6.9175   17.4674 C.ar      1 <0>         0.1700
     17 N3         12.1276    7.8520   17.7837 N.am      1 <0>        -0.6600
     18 C13        12.0718    8.8562   16.8931 C.2       1 <0>         0.5300
     19 O3         11.3144    9.8030   16.9218 O.2       1 <0>        -0.4900
     20 C14        13.1313    8.5839   15.8465 C.3       1 <0>        -0.1200
     21 C15        13.7676    7.2893   16.2988 C.ar      1 <0>        -0.1500
     22 C16        14.7809    6.5203   15.7847 C.ar      1 <0>        -0.0100
     23 C17        17.5424    1.3785   15.0686 C.3       1 <0>        -0.1400
     24 C18        18.8787    0.6322   15.1326 C.3       1 <0>         0.1100
     25 H1         19.4415   -3.1976   13.8910 H         1 <0>         0.0600
     26 H2         20.0000   -1.5173   14.0740 H         1 <0>         0.0600
     27 H3         20.7538   -2.8151   15.0311 H         1 <0>         0.0600
     28 H4         18.6123   -3.1765   16.2278 H         1 <0>         0.0900
     29 H5         17.8585   -1.8787   15.2708 H         1 <0>         0.0900
     30 H6         19.7634    1.7302   17.6053 H         1 <0>         0.0700
     31 H7         18.9846    0.4453   18.5620 H         1 <0>         0.1000
     32 H8         17.5533    2.5053   18.3272 H         1 <0>         0.0800
     33 H9         16.7880    1.0442   17.6572 H         1 <0>         0.0700
     34 H10        18.3329    3.1274   16.0471 H         1 <0>         0.1100
     35 H11        14.1401    3.1732   16.1508 H         1 <0>         0.0600
     36 H12        14.8778    1.7110   15.4534 H         1 <0>         0.0800
     37 H13        14.9245    1.9791   17.2125 H         1 <0>         0.0800
     38 H14        14.7930    4.0587   18.1230 H         1 <0>         0.1400
     39 H15        12.9851    5.4443   19.0267 H         1 <0>         0.1400
     40 H16        11.5492    7.7859   18.5596 H         1 <0>         0.4200
     41 H17        13.8682    9.3869   15.8309 H         1 <0>         0.1300
     42 H18        12.6756    8.4629   14.8638 H         1 <0>         0.1300
     43 H19        15.2826    6.8218   14.8771 H         1 <0>         0.1400
     44 H20        16.7242    0.6722   15.2091 H         1 <0>         0.0700
     45 H21        17.4425    1.8631   14.0975 H         1 <0>         0.0800
     46 H22        19.6927    1.3199   14.9025 H         1 <0>         0.0800
     47 H23        18.8774   -0.1863   14.4127 H         1 <0>         0.0900
@<TRIPOS>BOND
     1    1    2 1
     2    1   25 1
     3    1   26 1
     4    1   27 1
     5    2    3 1
     6    2   28 1
     7    2   29 1
     8    3    4 2
     9    3    5 am
    10    5   24 1
    11    5    6 1
    12    6    7 1
    13    6   30 1
    14    6   31 1
    15    7    8 1
    16    7   32 1
    17    7   33 1
    18    8    9 1
    19    8   23 1
    20    8   34 1
    21    9   10 1
    22    9   11 am
    23   10   35 1
    24   10   36 1
    25   10   37 1
    26   11   12 2
    27   11   13 1
    28   13   22 ar
    29   13   14 ar
    30   14   15 ar
    31   14   38 1
    32   15   16 ar
    33   15   39 1
    34   16   21 ar
    35   16   17 1
    36   17   18 am
    37   17   40 1
    38   18   19 2
    39   18   20 1
    40   20   21 1
    41   20   41 1
    42   20   42 1
    43   21   22 ar
    44   22   43 1
    45   23   24 1
    46   23   44 1
    47   23   45 1
    48   24   46 1
    49   24   47 1
##########                 Name:            smyd3_409
##########          Protonation:                 none
##########               SMILES:   CN(C(=O)C1=CC=C2NC(=O)CC2=C1)C1CC[NH+](C(C)(C)C)CC1
##########            Long Name:   NO_LONG_NAME
##########          FlexRecCode: 1
##########               Number:                 1059
##########   Ligand Source File: /proj/zinc22/users/x_andlu/OGG1/revisions/docking/targets/smyd3/db2gen/split_par
##########                 Rank:                    1
##########               Setnum:                    9
##########             Matchnum:                   11
##########                Cloud:                    1
##########        Electrostatic:           -19.916212
##########                 Gist:             0.000000
##########        Van der Waals:           -34.032368
##########  Ligand Polar Desolv:             8.917706
########## Ligand Apolar Desolv:            -2.642879
##########      Internal Energy:             0.000000
##########      Receptor Energy:             0.000000
########## Receptor Desolvation:             0.000000
########## Receptor Hydrophobic:             0.000000
##########         Total Energy:           -47.673752
##########        Ligand Charge:             1.000000
##########            Arbitrary:    +999.9990
##########        Ligand Energy:             0.000000

@<TRIPOS>MOLECULE
smyd3_409      none
   52    54     0     0     0
SMALL
USER_CHARGES

@<TRIPOS>ATOM
      1 C1         15.0782    3.0181   15.4612 C.3       1 <0>         0.0600
      2 N1         16.3599    3.5565   15.9231 N.am      1 <0>        -0.6100
      3 C2         16.4865    4.8749   16.1724 C.2       1 <0>         0.5800
      4 O1         17.5616    5.4219   16.0201 O.2       1 <0>        -0.5200
      5 C3         15.3200    5.6548   16.6301 C.ar      1 <0>        -0.1700
      6 C4         14.6709    5.3169   17.8205 C.ar      1 <0>        -0.0200
      7 C5         13.5835    6.0432   18.2462 C.ar      1 <0>        -0.1400
      8 C6         13.1193    7.1241   17.4941 C.ar      1 <0>         0.1800
      9 N2         12.0567    7.9934   17.7175 N.am      1 <0>        -0.6600
     10 C7         11.9360    8.9139   16.7467 C.2       1 <0>         0.5300
     11 O2         11.1010    9.7914   16.6860 O.2       1 <0>        -0.4900
     12 C8         13.0377    8.6503   15.7424 C.3       1 <0>        -0.1100
     13 C9         13.7740    7.4570   16.3075 C.ar      1 <0>        -0.1500
     14 C10        14.8560    6.7372   15.8751 C.ar      1 <0>        -0.0400
     15 C11        17.5042    2.6618   16.1141 C.3       1 <0>         0.1300
     16 C12        17.8425    1.9730   14.7887 C.3       1 <0>        -0.1600
     17 C13        18.9851    0.9800   15.0135 C.3       1 <0>        -0.0100
     18 N3         18.5783   -0.0264   16.0015 N.4       1 <0>        -0.3800
     19 H1         17.7381   -0.4868   15.6848 H         1 <0>         0.4200
     20 C14        19.6505   -1.0186   16.1552 C.3       1 <0>         0.0500
     21 C15        20.9264   -0.3212   16.6310 C.3       1 <0>        -0.1800
     22 C16        19.2293   -2.0692   17.1847 C.3       1 <0>        -0.1800
     23 C17        19.9123   -1.6991   14.8101 C.3       1 <0>        -0.1800
     24 C18        18.3226    0.6198   17.2944 C.3       1 <0>        -0.0100
     25 C19        17.1533    1.5975   17.1579 C.3       1 <0>        -0.1600
     26 H2         15.1680    1.9418   15.3142 H         1 <0>         0.0700
     27 H3         14.3093    3.2201   16.2069 H         1 <0>         0.0700
     28 H4         14.8036    3.4918   14.5187 H         1 <0>         0.0900
     29 H5         15.0241    4.4825   18.4081 H         1 <0>         0.1400
     30 H6         13.0863    5.7764   19.1671 H         1 <0>         0.1400
     31 H7         11.4692    7.9408   18.4876 H         1 <0>         0.4200
     32 H8         12.6157    8.4118   14.7660 H         1 <0>         0.1300
     33 H9         13.7029    9.5107   15.6702 H         1 <0>         0.1300
     34 H10        15.3504    7.0062   14.9534 H         1 <0>         0.1400
     35 H11        18.3643    3.2377   16.4556 H         1 <0>         0.1200
     36 H12        16.9656    1.4402   14.4211 H         1 <0>         0.0900
     37 H13        18.1476    2.7214   14.0573 H         1 <0>         0.1200
     38 H14        19.8619    1.5142   15.3794 H         1 <0>         0.1300
     39 H15        19.2271    0.4872   14.0719 H         1 <0>         0.1400
     40 H16        21.7220   -1.0576   16.7451 H         1 <0>         0.0800
     41 H17        21.2265    0.4273   15.8975 H         1 <0>         0.1100
     42 H18        20.7399    0.1637   17.5893 H         1 <0>         0.0800
     43 H19        20.0247   -2.8056   17.2988 H         1 <0>         0.0800
     44 H20        19.0425   -1.5845   18.1430 H         1 <0>         0.1100
     45 H21        18.3201   -2.5660   16.8457 H         1 <0>         0.0800
     46 H22        20.7080   -2.4354   14.9242 H         1 <0>         0.0800
     47 H23        19.0033   -2.1961   14.4712 H         1 <0>         0.1000
     48 H24        20.2123   -0.9508   14.0765 H         1 <0>         0.0800
     49 H25        19.2136    1.1617   17.6118 H         1 <0>         0.1300
     50 H26        18.0760   -0.1393   18.0365 H         1 <0>         0.1400
     51 H27        16.9663    2.0775   18.1185 H         1 <0>         0.1200
     52 H28        16.2613    1.0571   16.8412 H         1 <0>         0.0900
@<TRIPOS>BOND
     1    1    2 1
     2    1   26 1
     3    1   27 1
     4    1   28 1
     5    2    3 am
     6    2   15 1
     7    3    4 2
     8    3    5 1
     9    5   14 ar
    10    5    6 ar
    11    6    7 ar
    12    6   29 1
    13    7    8 ar
    14    7   30 1
    15    8   13 ar
    16    8    9 1
    17    9   10 am
    18    9   31 1
    19   10   11 2
    20   10   12 1
    21   12   13 1
    22   12   32 1
    23   12   33 1
    24   13   14 ar
    25   14   34 1
    26   15   25 1
    27   15   16 1
    28   15   35 1
    29   16   17 1
    30   16   36 1
    31   16   37 1
    32   17   18 1
    33   17   38 1
    34   17   39 1
    35   18   19 1
    36   18   20 1
    37   18   24 1
    38   20   21 1
    39   20   22 1
    40   20   23 1
    41   21   40 1
    42   21   41 1
    43   21   42 1
    44   22   43 1
    45   22   44 1
    46   22   45 1
    47   23   46 1
    48   23   47 1
    49   23   48 1
    50   24   25 1
    51   24   49 1
    52   24   50 1
    53   25   51 1
    54   25   52 1
##########                 Name:            smyd3_418
##########          Protonation:                 none
##########               SMILES:   C[NH+]1CCC(N(CC2CC2)C(=O)C2=CC=C3NC(=O)CC3=C2)CC1
##########            Long Name:   NO_LONG_NAME
##########          FlexRecCode: 1
##########               Number:                 1093
##########   Ligand Source File: /proj/zinc22/users/x_andlu/OGG1/revisions/docking/targets/smyd3/db2gen/split_par
##########                 Rank:                    1
##########               Setnum:                   58
##########             Matchnum:                    2
##########                Cloud:                    1
##########        Electrostatic:           -13.829767
##########                 Gist:             0.000000
##########        Van der Waals:           -33.148754
##########  Ligand Polar Desolv:            13.032046
########## Ligand Apolar Desolv:            -2.881061
##########      Internal Energy:             0.000000
##########      Receptor Energy:             0.000000
########## Receptor Desolvation:             0.000000
########## Receptor Hydrophobic:             0.000000
##########         Total Energy:           -36.827538
##########        Ligand Charge:             1.000000
##########            Arbitrary:    +999.9990
##########        Ligand Energy:             0.000000

@<TRIPOS>MOLECULE
smyd3_418      none
   50    53     0     0     0
SMALL
USER_CHARGES

@<TRIPOS>ATOM
      1 C1         20.7148   -0.4115   15.2724 C.3       1 <0>        -0.0500
      2 N1         19.9241    0.8264   15.2966 N.4       1 <0>        -0.4000
      3 H1         20.4638    1.5758   14.8902 H         1 <0>         0.4200
      4 C2         18.6935    0.6346   14.5200 C.3       1 <0>        -0.0100
      5 C3         17.9052    1.9453   14.4743 C.3       1 <0>        -0.2200
      6 C4         17.5487    2.3702   15.9017 C.3       1 <0>         0.1500
      7 N2         16.8601    3.6630   15.8704 N.am      1 <0>        -0.6400
      8 C5         17.6312    4.9057   15.9558 C.3       1 <0>         0.1500
      9 C6         18.0154    5.3652   14.5478 C.3       1 <0>        -0.1900
     10 C7         19.4947    5.3011   14.1628 C.3       1 <0>        -0.1800
     11 C8         18.8299    6.6544   14.4231 C.3       1 <0>        -0.1700
     12 C9         15.5175    3.7089   15.7632 C.2       1 <0>         0.5800
     13 O1         14.9245    2.8282   15.1707 O.2       1 <0>        -0.4800
     14 C10        14.7669    4.8283   16.3649 C.ar      1 <0>        -0.1600
     15 C11        14.3099    4.7415   17.6825 C.ar      1 <0>        -0.1400
     16 C12        13.6068    5.7828   18.2414 C.ar      1 <0>        -0.1700
     17 C13        13.3522    6.9391   17.5014 C.ar      1 <0>         0.1900
     18 N3         12.6783    8.1058   17.8471 N.am      1 <0>        -0.6600
     19 C14        12.6483    8.9962   16.8417 C.2       1 <0>         0.5300
     20 O2         12.1303   10.0926   16.8659 O.2       1 <0>        -0.4800
     21 C15        13.3829    8.3745   15.6730 C.3       1 <0>        -0.1200
     22 C16        13.8141    7.0212   16.1904 C.ar      1 <0>        -0.1400
     23 C17        14.5123    5.9859   15.6219 C.ar      1 <0>         0.0100
     24 C18        18.8344    2.4947   16.7246 C.3       1 <0>        -0.2300
     25 C19        19.5892    1.1640   16.6853 C.3       1 <0>        -0.0000
     26 H2         20.1334   -1.2225   15.7111 H         1 <0>         0.1300
     27 H3         20.9669   -0.6614   14.2418 H         1 <0>         0.1300
     28 H4         21.6305   -0.2691   15.8463 H         1 <0>         0.1300
     29 H5         18.0851   -0.1387   14.9892 H         1 <0>         0.1400
     30 H6         18.9491    0.3293   13.5053 H         1 <0>         0.1400
     31 H7         16.9910    1.8003   13.8988 H         1 <0>         0.1300
     32 H8         18.5126    2.7192   14.0051 H         1 <0>         0.1300
     33 H9         16.8980    1.6215   16.3532 H         1 <0>         0.1100
     34 H10        17.0278    5.6753   16.4373 H         1 <0>         0.0900
     35 H11        18.5346    4.7335   16.5408 H         1 <0>         0.0900
     36 H12        17.2826    5.1555   13.7686 H         1 <0>         0.1000
     37 H13        20.1943    4.9316   14.9126 H         1 <0>         0.1000
     38 H14        19.7355    5.0491   13.1300 H         1 <0>         0.1000
     39 H15        18.6334    7.2926   13.5616 H         1 <0>         0.1000
     40 H16        19.0923    7.1751   15.3441 H         1 <0>         0.1000
     41 H17        14.5064    3.8521   18.2628 H         1 <0>         0.1800
     42 H18        13.2538    5.7077   19.2594 H         1 <0>         0.1300
     43 H19        12.2751    8.2590   18.7160 H         1 <0>         0.4200
     44 H20        14.2517    8.9755   15.4044 H         1 <0>         0.1400
     45 H21        12.7177    8.2622   14.8168 H         1 <0>         0.1400
     46 H22        14.8644    6.0646   14.6040 H         1 <0>         0.1500
     47 H23        19.4616    3.2802   16.3032 H         1 <0>         0.1400
     48 H24        18.5838    2.7420   17.7561 H         1 <0>         0.1300
     49 H25        18.9617    0.3796   17.1083 H         1 <0>         0.1400
     50 H26        20.5056    1.2500   17.2690 H         1 <0>         0.1400
@<TRIPOS>BOND
     1    1    2 1
     2    1   26 1
     3    1   27 1
     4    1   28 1
     5    2    3 1
     6    2   25 1
     7    2    4 1
     8    4    5 1
     9    4   29 1
    10    4   30 1
    11    5    6 1
    12    5   31 1
    13    5   32 1
    14    6    7 1
    15    6   24 1
    16    6   33 1
    17    7    8 1
    18    7   12 am
    19    8    9 1
    20    8   34 1
    21    8   35 1
    22    9   11 1
    23    9   10 1
    24    9   36 1
    25   10   11 1
    26   10   37 1
    27   10   38 1
    28   11   39 1
    29   11   40 1
    30   12   13 2
    31   12   14 1
    32   14   23 ar
    33   14   15 ar
    34   15   16 ar
    35   15   41 1
    36   16   17 ar
    37   16   42 1
    38   17   22 ar
    39   17   18 1
    40   18   19 am
    41   18   43 1
    42   19   20 2
    43   19   21 1
    44   21   22 1
    45   21   44 1
    46   21   45 1
    47   22   23 ar
    48   23   46 1
    49   24   25 1
    50   24   47 1
    51   24   48 1
    52   25   49 1
    53   25   50 1
##########                 Name:            smyd3_421
##########          Protonation:                 none
##########               SMILES:   COCCN(C(=O)C1=CC=C2NC(=O)CC2=C1)C1CC[NH+](C)CC1
##########            Long Name:   NO_LONG_NAME
##########          FlexRecCode: 1
##########               Number:                 1104
##########   Ligand Source File: /proj/zinc22/users/x_andlu/OGG1/revisions/docking/targets/smyd3/db2gen/split_par
##########                 Rank:                    1
##########               Setnum:                   56
##########             Matchnum:                    4
##########                Cloud:                    1
##########        Electrostatic:           -20.461727
##########                 Gist:             0.000000
##########        Van der Waals:           -32.254581
##########  Ligand Polar Desolv:             8.642303
########## Ligand Apolar Desolv:            -2.303677
##########      Internal Energy:             0.000000
##########      Receptor Energy:             0.000000
########## Receptor Desolvation:             0.000000
########## Receptor Hydrophobic:             0.000000
##########         Total Energy:           -46.377682
##########        Ligand Charge:             1.000000
##########            Arbitrary:    +999.9990
##########        Ligand Energy:             0.000000

@<TRIPOS>MOLECULE
smyd3_421      none
   50    52     0     0     0
SMALL
USER_CHARGES

@<TRIPOS>ATOM
      1 C1         14.9897   -1.2382   14.9408 C.3       1 <0>         0.0300
      2 O1         15.2177   -0.0911   15.7620 O.3       1 <0>        -0.3900
      3 C2         14.1987    0.9059   15.6638 C.3       1 <0>         0.0300
      4 C3         14.5450    2.0811   16.5801 C.3       1 <0>         0.1000
      5 N1         15.8303    2.6549   16.1737 N.am      1 <0>        -0.6000
      6 C4         15.9007    3.9441   15.7873 C.2       1 <0>         0.5800
      7 O2         16.7357    4.2903   14.9740 O.2       1 <0>        -0.5300
      8 C5         14.9641    4.9358   16.3513 C.ar      1 <0>        -0.1700
      9 C6         14.4604    4.7719   17.6443 C.ar      1 <0>        -0.0200
     10 C7         13.5872    5.6955   18.1692 C.ar      1 <0>        -0.1400
     11 C8         13.1972    6.8047   17.4160 C.ar      1 <0>         0.1800
     12 N2         12.3404    7.8552   17.7273 N.am      1 <0>        -0.6600
     13 C9         12.2247    8.7366   16.7202 C.2       1 <0>         0.5300
     14 O3         11.5469    9.7423   16.7176 O.2       1 <0>        -0.4800
     15 C10        13.0987    8.2386   15.5888 C.3       1 <0>        -0.1200
     16 C11        13.7062    6.9629   16.1262 C.ar      1 <0>        -0.1500
     17 C12        14.5742    6.0462   15.5951 C.ar      1 <0>        -0.0500
     18 C13        17.0389    1.8273   16.1874 C.3       1 <0>         0.1500
     19 C14        18.0735    2.4471   17.1313 C.3       1 <0>        -0.1700
     20 C15        19.3613    1.6224   17.0802 C.3       1 <0>         0.0000
     21 N3         19.8886    1.6161   15.7103 N.4       1 <0>        -0.3900
     22 H1         20.0370    2.5661   15.4048 H         1 <0>         0.4300
     23 C16        21.1648    0.8890   15.6818 C.3       1 <0>        -0.0500
     24 C17        18.9324    0.9584   14.8117 C.3       1 <0>         0.0000
     25 C18        17.6279    1.7575   14.7754 C.3       1 <0>        -0.1700
     26 H2         15.8070   -1.9474   15.0723 H         1 <0>         0.0500
     27 H3         14.0499   -1.7097   15.2282 H         1 <0>         0.0400
     28 H4         14.9383   -0.9327   13.8959 H         1 <0>         0.0900
     29 H5         13.2424    0.4790   15.9662 H         1 <0>         0.0700
     30 H6         14.1308    1.2558   14.6337 H         1 <0>         0.0600
     31 H7         14.6128    1.7311   17.6101 H         1 <0>         0.1000
     32 H8         13.7677    2.8416   16.5052 H         1 <0>         0.1200
     33 H9         14.7575    3.9168   18.2333 H         1 <0>         0.1400
     34 H10        13.2013    5.5624   19.1691 H         1 <0>         0.1400
     35 H11        11.8787    7.9417   18.5760 H         1 <0>         0.4200
     36 H12        12.4972    8.0322   14.7036 H         1 <0>         0.1300
     37 H13        13.8777    8.9656   15.3592 H         1 <0>         0.1300
     38 H14        14.9575    6.1819   14.5946 H         1 <0>         0.1400
     39 H15        16.7890    0.8225   16.5280 H         1 <0>         0.1100
     40 H16        18.2838    3.4702   16.8195 H         1 <0>         0.1100
     41 H17        17.6826    2.4491   18.1489 H         1 <0>         0.1100
     42 H18        19.1500    0.5996   17.3924 H         1 <0>         0.1300
     43 H19        20.0997    2.0614   17.7512 H         1 <0>         0.1300
     44 H20        21.5572    0.8838   14.6649 H         1 <0>         0.1200
     45 H21        21.8777    1.3805   16.3439 H         1 <0>         0.1200
     46 H22        21.0063   -0.1364   16.0154 H         1 <0>         0.1200
     47 H23        18.7300   -0.0503   15.1723 H         1 <0>         0.1300
     48 H24        19.3544    0.9071   13.8081 H         1 <0>         0.1300
     49 H25        16.9186    1.2667   14.1091 H         1 <0>         0.1100
     50 H26        17.8282    2.7664   14.4144 H         1 <0>         0.1100
@<TRIPOS>BOND
     1    1    2 1
     2    1   26 1
     3    1   27 1
     4    1   28 1
     5    2    3 1
     6    3    4 1
     7    3   29 1
     8    3   30 1
     9    4    5 1
    10    4   31 1
    11    4   32 1
    12    5    6 am
    13    5   18 1
    14    6    7 2
    15    6    8 1
    16    8   17 ar
    17    8    9 ar
    18    9   10 ar
    19    9   33 1
    20   10   11 ar
    21   10   34 1
    22   11   16 ar
    23   11   12 1
    24   12   13 am
    25   12   35 1
    26   13   14 2
    27   13   15 1
    28   15   16 1
    29   15   36 1
    30   15   37 1
    31   16   17 ar
    32   17   38 1
    33   18   25 1
    34   18   19 1
    35   18   39 1
    36   19   20 1
    37   19   40 1
    38   19   41 1
    39   20   21 1
    40   20   42 1
    41   20   43 1
    42   21   22 1
    43   21   23 1
    44   21   24 1
    45   23   44 1
    46   23   45 1
    47   23   46 1
    48   24   25 1
    49   24   47 1
    50   24   48 1
    51   25   49 1
    52   25   50 1
##########                 Name:            smyd3_425
##########          Protonation:                 none
##########               SMILES:   CC[NH+]1CCC(N(C(=O)C2=CC=C3NC(=O)CC3=C2)C2CC2)CC1
##########            Long Name:   NO_LONG_NAME
##########          FlexRecCode: 1
##########               Number:                 1113
##########   Ligand Source File: /proj/zinc22/users/x_andlu/OGG1/revisions/docking/targets/smyd3/db2gen/split_par
##########                 Rank:                    1
##########               Setnum:                   32
##########             Matchnum:                   11
##########                Cloud:                    1
##########        Electrostatic:           -20.891371
##########                 Gist:             0.000000
##########        Van der Waals:           -32.151035
##########  Ligand Polar Desolv:            10.901915
########## Ligand Apolar Desolv:            -2.902028
##########      Internal Energy:             0.000000
##########      Receptor Energy:             0.000000
########## Receptor Desolvation:             0.000000
########## Receptor Hydrophobic:             0.000000
##########         Total Energy:           -45.042515
##########        Ligand Charge:             1.000000
##########            Arbitrary:    +999.9990
##########        Ligand Energy:             0.000000

@<TRIPOS>MOLECULE
smyd3_425      none
   50    53     0     0     0
SMALL
USER_CHARGES

@<TRIPOS>ATOM
      1 C1         20.6146   -1.4100   16.9940 C.3       1 <0>        -0.1900
      2 C2         20.7913   -0.1889   16.0892 C.3       1 <0>        -0.0100
      3 N1         19.5294    0.5605   16.0262 N.4       1 <0>        -0.4000
      4 H1         18.8049   -0.0337   15.6522 H         1 <0>         0.4200
      5 C3         19.1534    0.9973   17.3761 C.3       1 <0>        -0.0100
      6 C4         17.8001    1.7099   17.3274 C.3       1 <0>        -0.2200
      7 C5         17.9037    2.9281   16.4052 C.3       1 <0>         0.1500
      8 N2         16.5922    3.5712   16.2939 N.am      1 <0>        -0.6100
      9 C6         16.5087    4.8998   16.0835 C.2       1 <0>         0.5800
     10 O1         17.3850    5.4738   15.4664 O.2       1 <0>        -0.4800
     11 C7         15.3534    5.6579   16.6022 C.ar      1 <0>        -0.1600
     12 C8         14.6987    5.2363   17.7624 C.ar      1 <0>        -0.1500
     13 C9         13.6186    5.9394   18.2421 C.ar      1 <0>        -0.1800
     14 C10        13.1673    7.0801   17.5752 C.ar      1 <0>         0.1900
     15 N3         12.1141    7.9413   17.8645 N.am      1 <0>        -0.6600
     16 C11        12.0049    8.9353   16.9675 C.2       1 <0>         0.5300
     17 O2         11.1796    9.8239   16.9741 O.2       1 <0>        -0.4700
     18 C12        13.1050    8.7376   15.9464 C.3       1 <0>        -0.1200
     19 C13        13.8241    7.4950   16.4197 C.ar      1 <0>        -0.1400
     20 C14        14.9024    6.8004   15.9326 C.ar      1 <0>         0.0100
     21 C15        15.3711    2.7701   16.4112 C.3       1 <0>         0.0700
     22 C16        14.9047    2.0072   15.1698 C.3       1 <0>        -0.1800
     23 C17        14.1379    3.2448   15.6401 C.3       1 <0>        -0.1800
     24 C18        18.3693    2.4712   15.0197 C.3       1 <0>        -0.2400
     25 C19        19.7007    1.7287   15.1543 C.3       1 <0>        -0.0100
     26 H2         21.5509   -1.9661   17.0408 H         1 <0>         0.0800
     27 H3         20.3358   -1.0828   17.9956 H         1 <0>         0.0800
     28 H4         19.8311   -2.0511   16.5900 H         1 <0>         0.1100
     29 H5         21.0701   -0.5160   15.0876 H         1 <0>         0.1300
     30 H6         21.5749    0.4523   16.4932 H         1 <0>         0.1300
     31 H7         19.9102    1.6816   17.7600 H         1 <0>         0.1400
     32 H8         19.0831    0.1293   18.0315 H         1 <0>         0.1400
     33 H9         17.5236    2.0350   18.3303 H         1 <0>         0.1300
     34 H10        17.0420    1.0268   16.9442 H         1 <0>         0.1300
     35 H11        18.6232    3.6363   16.8162 H         1 <0>         0.1200
     36 H12        15.0418    4.3550   18.2838 H         1 <0>         0.1800
     37 H13        13.1172    5.6079   19.1394 H         1 <0>         0.1300
     38 H14        11.5251    7.8362   18.6281 H         1 <0>         0.4200
     39 H15        13.7813    9.5925   15.9428 H         1 <0>         0.1400
     40 H16        12.6839    8.5807   14.9534 H         1 <0>         0.1400
     41 H17        15.4012    7.1344   15.0349 H         1 <0>         0.1500
     42 H18        15.2081    2.3008   17.3815 H         1 <0>         0.1400
     43 H19        15.5062    2.1013   14.2657 H         1 <0>         0.1000
     44 H20        14.4349    1.0357   15.3230 H         1 <0>         0.1100
     45 H21        13.1637    3.0875   16.1028 H         1 <0>         0.1000
     46 H22        14.2350    4.1532   15.0455 H         1 <0>         0.1100
     47 H23        17.6239    1.8040   14.5869 H         1 <0>         0.1500
     48 H24        18.4993    3.3401   14.3745 H         1 <0>         0.1300
     49 H25        20.4457    2.3975   15.5856 H         1 <0>         0.1400
     50 H26        20.0339    1.4010   14.1696 H         1 <0>         0.1400
@<TRIPOS>BOND
     1    1    2 1
     2    1   26 1
     3    1   27 1
     4    1   28 1
     5    2    3 1
     6    2   29 1
     7    2   30 1
     8    3    4 1
     9    3   25 1
    10    3    5 1
    11    5    6 1
    12    5   31 1
    13    5   32 1
    14    6    7 1
    15    6   33 1
    16    6   34 1
    17    7    8 1
    18    7   24 1
    19    7   35 1
    20    8    9 am
    21    8   21 1
    22    9   10 2
    23    9   11 1
    24   11   20 ar
    25   11   12 ar
    26   12   13 ar
    27   12   36 1
    28   13   14 ar
    29   13   37 1
    30   14   19 ar
    31   14   15 1
    32   15   16 am
    33   15   38 1
    34   16   17 2
    35   16   18 1
    36   18   19 1
    37   18   39 1
    38   18   40 1
    39   19   20 ar
    40   20   41 1
    41   21   23 1
    42   21   22 1
    43   21   42 1
    44   22   23 1
    45   22   43 1
    46   22   44 1
    47   23   45 1
    48   23   46 1
    49   24   25 1
    50   24   47 1
    51   24   48 1
    52   25   49 1
    53   25   50 1
##########                 Name:            smyd3_442
##########          Protonation:                 none
##########               SMILES:   CN(C)C(=O)N1CCC(NC(=O)C2=CC=C3NC(=O)CC3=C2)CC1
##########            Long Name:   NO_LONG_NAME
##########          FlexRecCode: 1
##########               Number:                 1153
##########   Ligand Source File: /proj/zinc22/users/x_andlu/OGG1/revisions/docking/targets/smyd3/db2gen/split_par
##########                 Rank:                    1
##########               Setnum:                    5
##########             Matchnum:                    6
##########                Cloud:                    1
##########        Electrostatic:           -18.851055
##########                 Gist:             0.000000
##########        Van der Waals:           -31.805040
##########  Ligand Polar Desolv:             7.042136
########## Ligand Apolar Desolv:            -1.595644
##########      Internal Energy:             0.000000
##########      Receptor Energy:             0.000000
########## Receptor Desolvation:             0.000000
########## Receptor Hydrophobic:             0.000000
##########         Total Energy:           -45.209606
##########        Ligand Charge:             0.000000
##########            Arbitrary:    +999.9990
##########        Ligand Energy:             0.000000

@<TRIPOS>MOLECULE
smyd3_442      none
   46    48     0     0     0
SMALL
USER_CHARGES

@<TRIPOS>ATOM
      1 C1         20.1578   -3.0904   16.2154 C.3       1 <0>         0.1000
      2 N1         20.2165   -1.7582   15.6090 N.am      1 <0>        -0.6300
      3 C2         20.2091   -1.6162   14.1509 C.3       1 <0>         0.0500
      4 C3         20.2772   -0.6632   16.3923 C.2       1 <0>         0.7200
      5 O1         20.8118   -0.7245   17.4826 O.2       1 <0>        -0.5700
      6 N2         19.7452    0.4999   15.9672 N.am      1 <0>        -0.6600
      7 C4         18.5903    0.5072   15.0589 C.3       1 <0>         0.1400
      8 C5         17.4871    1.3760   15.6710 C.3       1 <0>        -0.1400
      9 C6         18.0503    2.7644   15.9826 C.3       1 <0>         0.1500
     10 N3         16.9894    3.6082   16.5379 N.am      1 <0>        -0.7200
     11 C7         16.2204    4.3512   15.7175 C.2       1 <0>         0.5700
     12 O2         16.4072    4.3212   14.5165 O.2       1 <0>        -0.5300
     13 C8         15.1515    5.2015   16.2770 C.ar      1 <0>        -0.1600
     14 C9         14.5466    4.8640   17.4906 C.ar      1 <0>        -0.0500
     15 C10        13.5545    5.6593   18.0143 C.ar      1 <0>        -0.1500
     16 C11        13.1354    6.8041   17.3334 C.ar      1 <0>         0.1700
     17 N4         12.1635    7.7453   17.6563 N.am      1 <0>        -0.6600
     18 C12        12.0599    8.7121   16.7294 C.2       1 <0>         0.5300
     19 O3         11.2980    9.6552   16.7546 O.2       1 <0>        -0.4900
     20 C13        13.0726    8.4032   15.6472 C.3       1 <0>        -0.1100
     21 C14        13.7383    7.1316   16.1218 C.ar      1 <0>        -0.1500
     22 C15        14.7326    6.3479   15.5934 C.ar      1 <0>        -0.0000
     23 C16        19.1869    2.6388   16.9999 C.3       1 <0>        -0.1500
     24 C17        20.3094    1.7847   16.4029 C.3       1 <0>         0.1200
     25 H1         20.1731   -2.9964   17.3014 H         1 <0>         0.0600
     26 H2         19.2396   -3.5900   15.9069 H         1 <0>         0.0700
     27 H3         21.0173   -3.6761   15.8895 H         1 <0>         0.0800
     28 H4         20.2578   -0.5594   13.8885 H         1 <0>         0.1000
     29 H5         21.0710   -2.1348   13.7310 H         1 <0>         0.0600
     30 H6         19.2933   -2.0487   13.7483 H         1 <0>         0.0600
     31 H7         18.2230   -0.5105   14.9267 H         1 <0>         0.0900
     32 H8         18.8850    0.9176   14.0931 H         1 <0>         0.0700
     33 H9         17.1285    0.9140   16.5909 H         1 <0>         0.0800
     34 H10        16.6624    1.4682   14.9642 H         1 <0>         0.0800
     35 H11        18.4312    3.2157   15.0664 H         1 <0>         0.0900
     36 H12        16.8403    3.6321   17.4962 H         1 <0>         0.4000
     37 H13        14.8623    3.9779   18.0211 H         1 <0>         0.1300
     38 H14        13.0943    5.3950   18.9550 H         1 <0>         0.1400
     39 H15        11.6216    7.7078   18.4599 H         1 <0>         0.4200
     40 H16        13.8021    9.2088   15.5654 H         1 <0>         0.1300
     41 H17        12.5735    8.2397   14.6921 H         1 <0>         0.1300
     42 H18        15.1903    6.6148   14.6523 H         1 <0>         0.1400
     43 H19        19.5722    3.6299   17.2390 H         1 <0>         0.0800
     44 H20        18.8123    2.1649   17.9072 H         1 <0>         0.0700
     45 H21        21.0763    1.6099   17.1575 H         1 <0>         0.0800
     46 H22        20.7482    2.2996   15.5482 H         1 <0>         0.0700
@<TRIPOS>BOND
     1    1    2 1
     2    1   25 1
     3    1   26 1
     4    1   27 1
     5    2    3 1
     6    2    4 am
     7    3   28 1
     8    3   29 1
     9    3   30 1
    10    4    5 2
    11    4    6 am
    12    6   24 1
    13    6    7 1
    14    7    8 1
    15    7   31 1
    16    7   32 1
    17    8    9 1
    18    8   33 1
    19    8   34 1
    20    9   10 1
    21    9   23 1
    22    9   35 1
    23   10   11 am
    24   10   36 1
    25   11   12 2
    26   11   13 1
    27   13   22 ar
    28   13   14 ar
    29   14   15 ar
    30   14   37 1
    31   15   16 ar
    32   15   38 1
    33   16   21 ar
    34   16   17 1
    35   17   18 am
    36   17   39 1
    37   18   19 2
    38   18   20 1
    39   20   21 1
    40   20   40 1
    41   20   41 1
    42   21   22 ar
    43   22   42 1
    44   23   24 1
    45   23   43 1
    46   23   44 1
    47   24   45 1
    48   24   46 1
##########                 Name:            smyd3_460
##########          Protonation:                 none
##########               SMILES:   CC1(NC(=O)C2=CC=C3NC(=O)CC3=C2)CC[NH+](CC(N)=O)CC1
##########            Long Name:   NO_LONG_NAME
##########          FlexRecCode: 1
##########               Number:                 1197
##########   Ligand Source File: /proj/zinc22/users/x_andlu/OGG1/revisions/docking/targets/smyd3/db2gen/split_par
##########                 Rank:                    1
##########               Setnum:                   17
##########             Matchnum:                   19
##########                Cloud:                    1
##########        Electrostatic:           -26.670700
##########                 Gist:             0.000000
##########        Van der Waals:           -33.388718
##########  Ligand Polar Desolv:             9.151849
########## Ligand Apolar Desolv:            -0.496211
##########      Internal Energy:             0.000000
##########      Receptor Energy:             0.000000
########## Receptor Desolvation:             0.000000
########## Receptor Hydrophobic:             0.000000
##########         Total Energy:           -51.403782
##########        Ligand Charge:             1.000000
##########            Arbitrary:    +999.9990
##########        Ligand Energy:             0.000000

@<TRIPOS>MOLECULE
smyd3_460      none
   47    49     0     0     0
SMALL
USER_CHARGES

@<TRIPOS>ATOM
      1 C1         18.5986    3.3317   15.0256 C.3       1 <0>        -0.1700
      2 C2         17.5528    2.5222   15.7949 C.3       1 <0>         0.1700
      3 N1         16.5806    3.4324   16.4055 N.am      1 <0>        -0.7300
      4 C3         15.8478    4.2550   15.6292 C.2       1 <0>         0.5700
      5 O1         15.9935    4.2417   14.4222 O.2       1 <0>        -0.5200
      6 C4         14.8684    5.1720   16.2442 C.ar      1 <0>        -0.1800
      7 C5         14.2772    4.8516   17.4691 C.ar      1 <0>        -0.0500
      8 C6         13.3654    5.7066   18.0424 C.ar      1 <0>        -0.1500
      9 C7         13.0224    6.9014   17.4064 C.ar      1 <0>         0.1900
     10 N2         12.1410    7.9085   17.7850 N.am      1 <0>        -0.6600
     11 C8         12.0903    8.9076   16.8884 C.2       1 <0>         0.5300
     12 O2         11.4095    9.9084   16.9632 O.2       1 <0>        -0.4800
     13 C9         13.0424    8.5496   15.7670 C.3       1 <0>        -0.1200
     14 C10        13.6179    7.2153   16.1839 C.ar      1 <0>        -0.1500
     15 C11        14.5256    6.3684   15.6053 C.ar      1 <0>         0.0000
     16 C12        16.8318    1.5725   14.8339 C.3       1 <0>        -0.1500
     17 C13        15.8434    0.7107   15.6259 C.3       1 <0>        -0.0200
     18 N3         16.5675   -0.0686   16.6372 N.4       1 <0>        -0.3700
     19 H1         17.2758   -0.6279   16.1857 H         1 <0>         0.4300
     20 C14        15.6250   -0.9490   17.3401 C.3       1 <0>        -0.0300
     21 C15        15.3536   -2.1690   16.4981 C.2       1 <0>         0.5100
     22 N4         14.1615   -2.7925   16.5797 N.am      1 <0>        -0.8200
     23 O3         16.2078   -2.5898   15.7470 O.2       1 <0>        -0.5300
     24 C16        17.2026    0.8364   17.6026 C.3       1 <0>        -0.0100
     25 C17        18.2430    1.7017   16.8885 C.3       1 <0>        -0.1500
     26 H2         18.1063    3.9152   14.2477 H         1 <0>         0.0700
     27 H3         19.1150    4.0032   15.7115 H         1 <0>         0.0700
     28 H4         19.3197    2.6533   14.5695 H         1 <0>         0.0900
     29 H5         16.4644    3.4430   17.3684 H         1 <0>         0.4000
     30 H6         14.5375    3.9296   17.9674 H         1 <0>         0.1300
     31 H7         12.9126    5.4528   18.9895 H         1 <0>         0.1400
     32 H8         11.6218    7.8916   18.6041 H         1 <0>         0.4200
     33 H9         12.5041    8.4558   14.8239 H         1 <0>         0.1300
     34 H10        13.8316    9.2967   15.6827 H         1 <0>         0.1300
     35 H11        14.9766    6.6252   14.6582 H         1 <0>         0.1500
     36 H12        16.2929    2.1527   14.0849 H         1 <0>         0.1300
     37 H13        17.5615    0.9296   14.3417 H         1 <0>         0.1000
     38 H14        15.3279    0.0325   14.9456 H         1 <0>         0.1500
     39 H15        15.1140    1.3544   16.1174 H         1 <0>         0.1200
     40 H16        16.0552   -1.2544   18.2940 H         1 <0>         0.1600
     41 H17        14.6916   -0.4146   17.5170 H         1 <0>         0.1600
     42 H18        13.4783   -2.4561   17.1803 H         1 <0>         0.4100
     43 H19        13.9869   -3.5779   16.0377 H         1 <0>         0.4200
     44 H20        17.6905    0.2510   18.3819 H         1 <0>         0.1400
     45 H21        16.4442    1.4775   18.0522 H         1 <0>         0.1300
     46 H22        19.0021    1.0616   16.4387 H         1 <0>         0.1100
     47 H23        18.7127    2.3743   17.6062 H         1 <0>         0.1200
@<TRIPOS>BOND
     1    1    2 1
     2    1   26 1
     3    1   27 1
     4    1   28 1
     5    2   25 1
     6    2    3 1
     7    2   16 1
     8    3    4 am
     9    3   29 1
    10    4    5 2
    11    4    6 1
    12    6   15 ar
    13    6    7 ar
    14    7    8 ar
    15    7   30 1
    16    8    9 ar
    17    8   31 1
    18    9   14 ar
    19    9   10 1
    20   10   11 am
    21   10   32 1
    22   11   12 2
    23   11   13 1
    24   13   14 1
    25   13   33 1
    26   13   34 1
    27   14   15 ar
    28   15   35 1
    29   16   17 1
    30   16   36 1
    31   16   37 1
    32   17   18 1
    33   17   38 1
    34   17   39 1
    35   18   19 1
    36   18   20 1
    37   18   24 1
    38   20   21 1
    39   20   40 1
    40   20   41 1
    41   21   22 am
    42   21   23 2
    43   22   42 1
    44   22   43 1
    45   24   25 1
    46   24   44 1
    47   24   45 1
    48   25   46 1
    49   25   47 1
##########                 Name:            smyd3_473
##########          Protonation:                 none
##########               SMILES:   N#CC1CN(C2CC2)CCC1NC(=O)C1=CC2=C(C=C1)NC(=O)C2
##########            Long Name:   NO_LONG_NAME
##########          FlexRecCode: 1
##########               Number:                 1232
##########   Ligand Source File: /proj/zinc22/users/x_andlu/OGG1/revisions/docking/targets/smyd3/db2gen/split_par
##########                 Rank:                    1
##########               Setnum:                    2
##########             Matchnum:                   14
##########                Cloud:                    1
##########        Electrostatic:           -19.446207
##########                 Gist:             0.000000
##########        Van der Waals:           -32.044624
##########  Ligand Polar Desolv:             5.733332
########## Ligand Apolar Desolv:            -1.643253
##########      Internal Energy:             0.000000
##########      Receptor Energy:             0.000000
########## Receptor Desolvation:             0.000000
########## Receptor Hydrophobic:             0.000000
##########         Total Energy:           -47.400753
##########        Ligand Charge:             0.000000
##########            Arbitrary:    +999.9990
##########        Ligand Energy:             0.000000

@<TRIPOS>MOLECULE
smyd3_473      none
   44    47     0     0     0
SMALL
USER_CHARGES

@<TRIPOS>ATOM
      1 N1         16.0248    0.3391   17.8655 N.1       1 <0>        -0.4200
      2 C1         16.4402    0.7576   16.8946 C.1       1 <0>         0.2100
      3 C2         16.9784    1.2998   15.6363 C.3       1 <0>         0.0000
      4 C3         18.0272    0.3383   15.0729 C.3       1 <0>         0.0700
      5 N2         19.1277    0.1942   16.0344 N.3       1 <0>        -0.5200
      6 C4         20.0855   -0.8267   15.5892 C.3       1 <0>         0.0000
      7 C5         19.8592   -2.2631   16.0648 C.3       1 <0>        -0.1600
      8 C6         21.0097   -1.4368   16.6449 C.3       1 <0>        -0.1700
      9 C7         19.7991    1.4789   16.2694 C.3       1 <0>         0.0600
     10 C8         18.8032    2.4744   16.8687 C.3       1 <0>        -0.1300
     11 C9         17.6301    2.6597   15.9021 C.3       1 <0>         0.1500
     12 N3         16.6446    3.5674   16.4946 N.am      1 <0>        -0.7300
     13 C10        15.8815    4.3446   15.7009 C.2       1 <0>         0.5700
     14 O1         16.0110    4.2924   14.4931 O.2       1 <0>        -0.5300
     15 C11        14.8888    5.2594   16.2979 C.ar      1 <0>        -0.1600
     16 C12        14.5082    6.4233   15.6226 C.ar      1 <0>        -0.0000
     17 C13        13.5844    7.2674   16.1861 C.ar      1 <0>        -0.1500
     18 C14        13.0164    6.9834   17.4248 C.ar      1 <0>         0.1700
     19 C15        13.3976    5.8204   18.0977 C.ar      1 <0>        -0.1500
     20 C16        14.3180    4.9654   17.5393 C.ar      1 <0>        -0.0500
     21 N4         12.1155    7.9816   17.7806 N.am      1 <0>        -0.6600
     22 C17        12.0280    8.9471   16.8505 C.2       1 <0>         0.5300
     23 O2         11.3236    9.9329   16.8998 O.2       1 <0>        -0.4900
     24 C18        12.9736    8.5727   15.7290 C.3       1 <0>        -0.1100
     25 H1         16.1692    1.4187   14.9157 H         1 <0>         0.1300
     26 H2         18.4148    0.7335   14.1338 H         1 <0>         0.0600
     27 H3         17.5698   -0.6350   14.8958 H         1 <0>         0.0900
     28 H4         20.4902   -0.6864   14.5868 H         1 <0>         0.1000
     29 H5         18.9995   -2.4507   16.7082 H         1 <0>         0.1000
     30 H6         20.1152   -3.0678   15.3756 H         1 <0>         0.1000
     31 H7         22.0221   -1.6981   16.3372 H         1 <0>         0.1000
     32 H8         20.9069   -1.0805   17.6700 H         1 <0>         0.1000
     33 H9         20.6286    1.3339   16.9616 H         1 <0>         0.0800
     34 H10        20.1784    1.8686   15.3248 H         1 <0>         0.0500
     35 H11        18.4339    2.0917   17.8200 H         1 <0>         0.0700
     36 H12        19.2978    3.4324   17.0284 H         1 <0>         0.0800
     37 H13        17.9937    3.0789   14.9640 H         1 <0>         0.1100
     38 H14        16.5413    3.6091   17.4582 H         1 <0>         0.4000
     39 H15        14.9397    6.6572   14.6607 H         1 <0>         0.1500
     40 H16        12.9640    5.5893   19.0595 H         1 <0>         0.1400
     41 H17        14.6040    4.0656   18.0636 H         1 <0>         0.1300
     42 H18        11.6080    7.9812   18.6073 H         1 <0>         0.4200
     43 H19        13.7445    9.3340   15.6091 H         1 <0>         0.1300
     44 H20        12.4274    8.4331   14.7962 H         1 <0>         0.1300
@<TRIPOS>BOND
     1    1    2 3
     2    2    3 1
     3    3   11 1
     4    3    4 1
     5    3   25 1
     6    4    5 1
     7    4   26 1
     8    4   27 1
     9    5    6 1
    10    5    9 1
    11    6    8 1
    12    6    7 1
    13    6   28 1
    14    7    8 1
    15    7   29 1
    16    7   30 1
    17    8   31 1
    18    8   32 1
    19    9   10 1
    20    9   33 1
    21    9   34 1
    22   10   11 1
    23   10   35 1
    24   10   36 1
    25   11   12 1
    26   11   37 1
    27   12   13 am
    28   12   38 1
    29   13   14 2
    30   13   15 1
    31   15   20 ar
    32   15   16 ar
    33   16   17 ar
    34   16   39 1
    35   17   24 1
    36   17   18 ar
    37   18   19 ar
    38   18   21 1
    39   19   20 ar
    40   19   40 1
    41   20   41 1
    42   21   22 am
    43   21   42 1
    44   22   23 2
    45   22   24 1
    46   24   43 1
    47   24   44 1
##########                 Name:            smyd3_536
##########          Protonation:                 none
##########               SMILES:   O=C1CC2=C(C=CC(C(=O)NC3CC4CCC(C3)[NH+]4C3CC3)=C2)N1
##########            Long Name:   NO_LONG_NAME
##########          FlexRecCode: 1
##########               Number:                 1400
##########   Ligand Source File: /proj/zinc22/users/x_andlu/OGG1/revisions/docking/targets/smyd3/db2gen/split_par
##########                 Rank:                    1
##########               Setnum:                    7
##########             Matchnum:                    2
##########                Cloud:                    1
##########        Electrostatic:           -25.361176
##########                 Gist:             0.000000
##########        Van der Waals:           -30.897312
##########  Ligand Polar Desolv:             7.826924
########## Ligand Apolar Desolv:            -2.493159
##########      Internal Energy:             0.000000
##########      Receptor Energy:             0.000000
########## Receptor Desolvation:             0.000000
########## Receptor Hydrophobic:             0.000000
##########         Total Energy:           -50.924725
##########        Ligand Charge:             1.000000
##########            Arbitrary:    +999.9990
##########        Ligand Energy:             0.000000

@<TRIPOS>MOLECULE
smyd3_536      none
   48    52     0     0     0
SMALL
USER_CHARGES

@<TRIPOS>ATOM
      1 O1         11.2550   10.0406   16.7443 O.2       1 <0>        -0.4800
      2 C1         11.9469    9.0446   16.7368 C.2       1 <0>         0.5300
      3 C2         12.8793    8.6059   15.6278 C.3       1 <0>        -0.1200
      4 C3         13.4776    7.3163   16.1420 C.ar      1 <0>        -0.1500
      5 C4         12.9158    7.0983   17.3968 C.ar      1 <0>         0.1900
      6 C5         13.2882    5.9638   18.1214 C.ar      1 <0>        -0.1500
      7 C6         14.1941    5.0722   17.5978 C.ar      1 <0>        -0.0500
      8 C7         14.7587    5.2997   16.3396 C.ar      1 <0>        -0.1700
      9 C8         15.7354    4.3454   15.7795 C.2       1 <0>         0.5700
     10 O2         15.8545    4.2342   14.5746 O.2       1 <0>        -0.5300
     11 N1         16.4952    3.5972   16.6036 N.am      1 <0>        -0.7300
     12 C9         17.4648    2.6499   16.0477 C.3       1 <0>         0.1400
     13 C10        18.6449    2.5037   17.0126 C.3       1 <0>        -0.1500
     14 C11        19.5809    1.3999   16.4944 C.3       1 <0>         0.0400
     15 C12        19.8152    1.6615   14.9612 C.3       1 <0>        -0.1400
     16 C13        18.6700    0.9047   14.2569 C.3       1 <0>        -0.1400
     17 C14        17.8510    0.2691   15.4040 C.3       1 <0>         0.0400
     18 C15        16.7904    1.2900   15.8461 C.3       1 <0>        -0.1600
     19 N2         18.8173    0.1242   16.5251 N.4       1 <0>        -0.3700
     20 H1         18.3305    0.0242   17.4031 H         1 <0>         0.4200
     21 C16        19.7110   -1.0185   16.2932 C.3       1 <0>        -0.0700
     22 C17        19.3542   -2.3431   16.9709 C.3       1 <0>        -0.1500
     23 C18        20.5401   -1.5186   17.4779 C.3       1 <0>        -0.1600
     24 C19        14.3869    6.4352   15.6127 C.ar      1 <0>         0.0000
     25 N3         12.0296    8.1234   17.7111 N.am      1 <0>        -0.6600
     26 H2         13.6584    9.3510   15.4664 H         1 <0>         0.1300
     27 H3         12.3222    8.4286   14.7078 H         1 <0>         0.1300
     28 H4         12.8590    5.7839   19.0961 H         1 <0>         0.1400
     29 H5         14.4739    4.1951   18.1625 H         1 <0>         0.1300
     30 H6         16.4003    3.6857   17.5649 H         1 <0>         0.4000
     31 H7         17.8249    3.0210   15.0881 H         1 <0>         0.1100
     32 H8         19.1889    3.4465   17.0697 H         1 <0>         0.1200
     33 H9         18.2760    2.2347   18.0023 H         1 <0>         0.0900
     34 H10        20.5104    1.3503   17.0614 H         1 <0>         0.1600
     35 H11        20.7808    1.2591   14.6544 H         1 <0>         0.1000
     36 H12        19.7604    2.7267   14.7367 H         1 <0>         0.1100
     37 H13        19.0722    0.1303   13.6038 H         1 <0>         0.1000
     38 H14        18.0503    1.5966   13.6866 H         1 <0>         0.1200
     39 H15        17.4082   -0.6841   15.1153 H         1 <0>         0.1500
     40 H16        16.3382    0.9643   16.7828 H         1 <0>         0.0900
     41 H17        16.0205    1.3746   15.0790 H         1 <0>         0.1200
     42 H18        20.1667   -1.0658   15.3043 H         1 <0>         0.1700
     43 H19        18.4565   -2.3666   17.5886 H         1 <0>         0.1200
     44 H20        19.5757   -3.2617   16.4278 H         1 <0>         0.1300
     45 H21        21.5412   -1.8953   17.2681 H         1 <0>         0.1300
     46 H22        20.4226   -0.9997   18.4292 H         1 <0>         0.1200
     47 H23        14.8139    6.6180   14.6376 H         1 <0>         0.1500
     48 H24        11.5282    8.1681   18.5402 H         1 <0>         0.4200
@<TRIPOS>BOND
     1    1    2 2
     2    2   25 am
     3    2    3 1
     4    3    4 1
     5    3   26 1
     6    3   27 1
     7    4   24 ar
     8    4    5 ar
     9    5    6 ar
    10    5   25 1
    11    6    7 ar
    12    6   28 1
    13    7    8 ar
    14    7   29 1
    15    8    9 1
    16    8   24 ar
    17    9   10 2
    18    9   11 am
    19   11   12 1
    20   11   30 1
    21   12   18 1
    22   12   13 1
    23   12   31 1
    24   13   14 1
    25   13   32 1
    26   13   33 1
    27   14   19 1
    28   14   15 1
    29   14   34 1
    30   15   16 1
    31   15   35 1
    32   15   36 1
    33   16   17 1
    34   16   37 1
    35   16   38 1
    36   17   18 1
    37   17   19 1
    38   17   39 1
    39   18   40 1
    40   18   41 1
    41   19   20 1
    42   19   21 1
    43   21   23 1
    44   21   22 1
    45   21   42 1
    46   22   23 1
    47   22   43 1
    48   22   44 1
    49   23   45 1
    50   23   46 1
    51   24   47 1
    52   25   48 1
##########                 Name:            smyd3_548
##########          Protonation:                 none
##########               SMILES:   CC(C)C(=O)N1CCC(NC(=O)C2=CC=C3NC(=O)CC3=C2)CC1
##########            Long Name:   NO_LONG_NAME
##########          FlexRecCode: 1
##########               Number:                 1438
##########   Ligand Source File: /proj/zinc22/users/x_andlu/OGG1/revisions/docking/targets/smyd3/db2gen/split_par
##########                 Rank:                    1
##########               Setnum:                    7
##########             Matchnum:                    1
##########                Cloud:                    1
##########        Electrostatic:           -18.013062
##########                 Gist:             0.000000
##########        Van der Waals:           -33.540318
##########  Ligand Polar Desolv:             6.594054
########## Ligand Apolar Desolv:            -1.873920
##########      Internal Energy:             0.000000
##########      Receptor Energy:             0.000000
########## Receptor Desolvation:             0.000000
########## Receptor Hydrophobic:             0.000000
##########         Total Energy:           -46.833244
##########        Ligand Charge:             0.000000
##########            Arbitrary:    +999.9990
##########        Ligand Energy:             0.000000

@<TRIPOS>MOLECULE
smyd3_548      none
   47    49     0     0     0
SMALL
USER_CHARGES

@<TRIPOS>ATOM
      1 C1         20.4841   -1.7457   13.8974 C.3       1 <0>        -0.1400
      2 C2         19.8626   -1.9842   15.2749 C.3       1 <0>        -0.1200
      3 C3         20.5652   -3.1613   15.9547 C.3       1 <0>        -0.1400
      4 C4         20.0241   -0.7469   16.1199 C.2       1 <0>         0.5200
      5 O1         20.6404   -0.8012   17.1630 O.2       1 <0>        -0.5400
      6 N1         19.4836    0.4199   15.7164 N.am      1 <0>        -0.6200
      7 C5         20.1058    1.6995   16.0826 C.3       1 <0>         0.1100
      8 C6         19.0514    2.5872   16.7510 C.3       1 <0>        -0.1400
      9 C7         17.8403    2.7195   15.8248 C.3       1 <0>         0.1500
     10 N2         16.8435    3.5947   16.4466 N.am      1 <0>        -0.7200
     11 C8         16.0266    4.3399   15.6761 C.2       1 <0>         0.5700
     12 O2         16.1168    4.2858   14.4647 O.2       1 <0>        -0.5300
     13 C9         15.0222    5.2216   16.3025 C.ar      1 <0>        -0.1600
     14 C10        14.5090    4.9171   17.5661 C.ar      1 <0>        -0.0500
     15 C11        13.5734    5.7387   18.1495 C.ar      1 <0>        -0.1500
     16 C12        13.1288    6.8839   17.4856 C.ar      1 <0>         0.1700
     17 N3         12.2050    7.8512   17.8675 N.am      1 <0>        -0.6600
     18 C13        12.0520    8.8079   16.9371 C.2       1 <0>         0.5300
     19 O3         11.3149    9.7685   17.0064 O.2       1 <0>        -0.4900
     20 C14        12.9723    8.4620   15.7858 C.3       1 <0>        -0.1200
     21 C15        13.6474    7.1826   16.2250 C.ar      1 <0>        -0.1500
     22 C16        14.5776    6.3682   15.6358 C.ar      1 <0>        -0.0000
     23 C17        17.2269    1.3384   15.5843 C.3       1 <0>        -0.1500
     24 C18        18.2606    0.4366   14.9023 C.3       1 <0>         0.1100
     25 H1         19.9835   -0.9072   13.4132 H         1 <0>         0.0600
     26 H2         21.5442   -1.5194   14.0113 H         1 <0>         0.0700
     27 H3         20.3672   -2.6407   13.2862 H         1 <0>         0.0600
     28 H4         18.8024   -2.2106   15.1610 H         1 <0>         0.0900
     29 H5         20.1224   -3.3312   16.9360 H         1 <0>         0.0600
     30 H6         20.4484   -4.0561   15.3434 H         1 <0>         0.0700
     31 H7         21.6253   -2.9348   16.0686 H         1 <0>         0.0600
     32 H8         20.4832    2.1920   15.1864 H         1 <0>         0.0700
     33 H9         20.9279    1.5231   16.7763 H         1 <0>         0.1000
     34 H10        19.4738    3.5739   16.9409 H         1 <0>         0.0800
     35 H11        18.7407    2.1369   17.6939 H         1 <0>         0.0700
     36 H12        18.1560    3.1473   14.8733 H         1 <0>         0.0900
     37 H13        16.7716    3.6380   17.4130 H         1 <0>         0.4000
     38 H14        14.8482    4.0334   18.0860 H         1 <0>         0.1300
     39 H15        13.1806    5.4972   19.1262 H         1 <0>         0.1400
     40 H16        11.7258    7.8366   18.7108 H         1 <0>         0.4200
     41 H17        12.3983    8.2977   14.8739 H         1 <0>         0.1300
     42 H18        13.7093    9.2509   15.6354 H         1 <0>         0.1300
     43 H19        14.9678    6.6122   14.6587 H         1 <0>         0.1400
     44 H20        16.9336    0.8993   16.5380 H         1 <0>         0.0700
     45 H21        16.3504    1.4360   14.9436 H         1 <0>         0.0800
     46 H22        18.4875    0.8261   13.9098 H         1 <0>         0.0800
     47 H23        17.8652   -0.5756   14.8161 H         1 <0>         0.0900
@<TRIPOS>BOND
     1    1    2 1
     2    1   25 1
     3    1   26 1
     4    1   27 1
     5    2    3 1
     6    2    4 1
     7    2   28 1
     8    3   29 1
     9    3   30 1
    10    3   31 1
    11    4    5 2
    12    4    6 am
    13    6   24 1
    14    6    7 1
    15    7    8 1
    16    7   32 1
    17    7   33 1
    18    8    9 1
    19    8   34 1
    20    8   35 1
    21    9   10 1
    22    9   23 1
    23    9   36 1
    24   10   11 am
    25   10   37 1
    26   11   12 2
    27   11   13 1
    28   13   22 ar
    29   13   14 ar
    30   14   15 ar
    31   14   38 1
    32   15   16 ar
    33   15   39 1
    34   16   21 ar
    35   16   17 1
    36   17   18 am
    37   17   40 1
    38   18   19 2
    39   18   20 1
    40   20   21 1
    41   20   41 1
    42   20   42 1
    43   21   22 ar
    44   22   43 1
    45   23   24 1
    46   23   44 1
    47   23   45 1
    48   24   46 1
    49   24   47 1
##########                 Name:            smyd3_552
##########          Protonation:                 none
##########               SMILES:   O=C1CC2=C(C=CC(C(=O)NC3CCN(C(=O)C4CC4)CC3)=C2)N1
##########            Long Name:   NO_LONG_NAME
##########          FlexRecCode: 1
##########               Number:                 1445
##########   Ligand Source File: /proj/zinc22/users/x_andlu/OGG1/revisions/docking/targets/smyd3/db2gen/split_par
##########                 Rank:                    1
##########               Setnum:                   38
##########             Matchnum:                    4
##########                Cloud:                    1
##########        Electrostatic:           -18.785624
##########                 Gist:             0.000000
##########        Van der Waals:           -32.391212
##########  Ligand Polar Desolv:             6.927837
########## Ligand Apolar Desolv:            -1.863567
##########      Internal Energy:             0.000000
##########      Receptor Energy:             0.000000
########## Receptor Desolvation:             0.000000
########## Receptor Hydrophobic:             0.000000
##########         Total Energy:           -46.112564
##########        Ligand Charge:             0.000000
##########            Arbitrary:    +999.9990
##########        Ligand Energy:             0.000000

@<TRIPOS>MOLECULE
smyd3_552      none
   45    48     0     0     0
SMALL
USER_CHARGES

@<TRIPOS>ATOM
      1 O1         11.2755    9.7393   16.7897 O.2       1 <0>        -0.4900
      2 C1         12.0212    8.7832   16.7631 C.2       1 <0>         0.5300
      3 C2         13.0092    8.4439   15.6673 C.3       1 <0>        -0.1200
      4 C3         13.6647    7.1678   16.1441 C.ar      1 <0>        -0.1500
      5 C4         13.0751    6.8645   17.3717 C.ar      1 <0>         0.1700
      6 C5         13.4868    5.7207   18.0594 C.ar      1 <0>        -0.1500
      7 C6         14.4590    4.9051   17.5309 C.ar      1 <0>        -0.0500
      8 C7         15.0436    5.2141   16.2995 C.ar      1 <0>        -0.1600
      9 C8         16.0875    4.3387   15.7317 C.2       1 <0>         0.5700
     10 O2         16.2490    4.2871   14.5278 O.2       1 <0>        -0.5300
     11 N1         16.8618    3.5964   16.5480 N.am      1 <0>        -0.7200
     12 C9         17.8981    2.7275   15.9845 C.3       1 <0>         0.1500
     13 C10        17.2507    1.7006   15.0523 C.3       1 <0>        -0.1500
     14 C11        18.3404    0.8162   14.4383 C.3       1 <0>         0.1100
     15 N2         19.1390    0.2281   15.5224 N.am      1 <0>        -0.6100
     16 C12        19.3233   -1.1051   15.5941 C.2       1 <0>         0.5500
     17 O3         18.4728   -1.8583   15.1697 O.2       1 <0>        -0.5400
     18 C13        20.5859   -1.6595   16.2016 C.3       1 <0>        -0.2000
     19 C14        21.9180   -1.1943   15.6100 C.3       1 <0>        -0.1500
     20 C15        21.4190   -2.6175   15.3478 C.3       1 <0>        -0.1500
     21 C16        19.7322    1.1212   16.5271 C.3       1 <0>         0.1100
     22 C17        18.6270    2.0022   17.1178 C.3       1 <0>        -0.1400
     23 C18        14.6327    6.3591   15.6094 C.ar      1 <0>        -0.0000
     24 N3         12.1251    7.8260   17.6999 N.am      1 <0>        -0.6600
     25 H1         12.4906    8.2774   14.7231 H         1 <0>         0.1300
     26 H2         13.7493    9.2370   15.5609 H         1 <0>         0.1300
     27 H3         13.0387    5.4756   19.0111 H         1 <0>         0.1400
     28 H4         14.7719    4.0224   18.0688 H         1 <0>         0.1300
     29 H5         16.7330    3.6376   17.5085 H         1 <0>         0.4000
     30 H6         18.6106    3.3302   15.4214 H         1 <0>         0.0900
     31 H7         16.5562    1.0812   15.6198 H         1 <0>         0.0700
     32 H8         16.7122    2.2185   14.2586 H         1 <0>         0.0800
     33 H9         18.9829    1.4199   13.7973 H         1 <0>         0.0800
     34 H10        17.8788    0.0216   13.8521 H         1 <0>         0.0900
     35 H11        20.5493   -1.8445   17.2752 H         1 <0>         0.1300
     36 H12        21.8810   -0.4871   14.7813 H         1 <0>         0.1000
     37 H13        22.7578   -1.0735   16.2943 H         1 <0>         0.1100
     38 H14        21.9310   -3.4324   15.8597 H         1 <0>         0.1000
     39 H15        21.0540   -2.8466   14.3466 H         1 <0>         0.1100
     40 H16        20.4882    1.7497   16.0565 H         1 <0>         0.0700
     41 H17        20.1890    0.5276   17.3192 H         1 <0>         0.1000
     42 H18        19.0679    2.7344   17.7941 H         1 <0>         0.0900
     43 H19        17.9194    1.3798   17.6657 H         1 <0>         0.0700
     44 H20        15.0782    6.6067   14.6572 H         1 <0>         0.1400
     45 H21        11.5975    7.8077   18.5136 H         1 <0>         0.4200
@<TRIPOS>BOND
     1    1    2 2
     2    2   24 am
     3    2    3 1
     4    3    4 1
     5    3   25 1
     6    3   26 1
     7    4   23 ar
     8    4    5 ar
     9    5    6 ar
    10    5   24 1
    11    6    7 ar
    12    6   27 1
    13    7    8 ar
    14    7   28 1
    15    8    9 1
    16    8   23 ar
    17    9   10 2
    18    9   11 am
    19   11   12 1
    20   11   29 1
    21   12   22 1
    22   12   13 1
    23   12   30 1
    24   13   14 1
    25   13   31 1
    26   13   32 1
    27   14   15 1
    28   14   33 1
    29   14   34 1
    30   15   16 am
    31   15   21 1
    32   16   17 2
    33   16   18 1
    34   18   20 1
    35   18   19 1
    36   18   35 1
    37   19   20 1
    38   19   36 1
    39   19   37 1
    40   20   38 1
    41   20   39 1
    42   21   22 1
    43   21   40 1
    44   21   41 1
    45   22   42 1
    46   22   43 1
    47   23   44 1
    48   24   45 1
##########                 Name:            smyd3_553
##########          Protonation:                 none
##########               SMILES:   COCC(=O)N1CCC(NC(=O)C2=CC=C3NC(=O)CC3=C2)CC1
##########            Long Name:   NO_LONG_NAME
##########          FlexRecCode: 1
##########               Number:                 1448
##########   Ligand Source File: /proj/zinc22/users/x_andlu/OGG1/revisions/docking/targets/smyd3/db2gen/split_par
##########                 Rank:                    1
##########               Setnum:                   53
##########             Matchnum:                   20
##########                Cloud:                    1
##########        Electrostatic:           -18.744154
##########                 Gist:             0.000000
##########        Van der Waals:           -32.972118
##########  Ligand Polar Desolv:             7.678224
########## Ligand Apolar Desolv:            -1.542254
##########      Internal Energy:             0.000000
##########      Receptor Energy:             0.000000
########## Receptor Desolvation:             0.000000
########## Receptor Hydrophobic:             0.000000
##########         Total Energy:           -45.580303
##########        Ligand Charge:             0.000000
##########            Arbitrary:    +999.9990
##########        Ligand Energy:             0.000000

@<TRIPOS>MOLECULE
smyd3_553      none
   45    47     0     0     0
SMALL
USER_CHARGES

@<TRIPOS>ATOM
      1 C1         19.1325   -3.6084   14.8436 C.3       1 <0>         0.0300
      2 O1         19.3173   -2.4004   15.5844 O.3       1 <0>        -0.3700
      3 C2         20.4507   -1.6339   15.1727 C.3       1 <0>         0.0400
      4 C3         20.5485   -0.3890   16.0164 C.2       1 <0>         0.5200
      5 O2         21.1875   -0.4036   17.0471 O.2       1 <0>        -0.5200
      6 N1         19.9259    0.7407   15.6255 N.am      1 <0>        -0.6200
      7 C4         20.4713    2.0576   15.9816 C.3       1 <0>         0.1200
      8 C5         19.3750    2.8750   16.6721 C.3       1 <0>        -0.1400
      9 C6         18.1400    2.9292   15.7699 C.3       1 <0>         0.1500
     10 N2         17.1012    3.7379   16.4127 N.am      1 <0>        -0.7200
     11 C7         16.2228    4.4290   15.6594 C.2       1 <0>         0.5700
     12 O3         16.2926    4.3813   14.4466 O.2       1 <0>        -0.5300
     13 C8         15.1762    5.2436   16.3070 C.ar      1 <0>        -0.1600
     14 C9         14.7086    4.9062   17.5798 C.ar      1 <0>        -0.0500
     15 C10        13.7334    5.6653   18.1829 C.ar      1 <0>        -0.1500
     16 C11        13.2028    6.7796   17.5299 C.ar      1 <0>         0.1700
     17 N3         12.2262    7.6851   17.9314 N.am      1 <0>        -0.6600
     18 C12        11.9935    8.6303   17.0058 C.2       1 <0>         0.5300
     19 O4         11.1975    9.5412   17.0910 O.2       1 <0>        -0.4900
     20 C13        12.9114    8.3451   15.8360 C.3       1 <0>        -0.1200
     21 C14        13.6763    7.1119   16.2598 C.ar      1 <0>        -0.1500
     22 C15        14.6453    6.3594   15.6511 C.ar      1 <0>        -0.0000
     23 C16        17.6124    1.5112   15.5392 C.3       1 <0>        -0.1500
     24 C17        18.6886    0.6785   14.8355 C.3       1 <0>         0.1100
     25 H1         18.2525   -4.1323   15.2165 H         1 <0>         0.0500
     26 H2         18.9939   -3.3704   13.7890 H         1 <0>         0.0900
     27 H3         20.0102   -4.2441   14.9602 H         1 <0>         0.0400
     28 H4         20.3397   -1.3548   14.1250 H         1 <0>         0.0800
     29 H5         21.3559   -2.2286   15.2963 H         1 <0>         0.0800
     30 H6         20.7984    2.5739   15.0791 H         1 <0>         0.0700
     31 H7         21.3166    1.9345   16.6588 H         1 <0>         0.1000
     32 H8         19.7364    3.8869   16.8552 H         1 <0>         0.0900
     33 H9         19.1127    2.4052   17.6200 H         1 <0>         0.0800
     34 H10        18.4086    3.3769   14.8131 H         1 <0>         0.1000
     35 H11        17.0454    3.7759   17.3803 H         1 <0>         0.4000
     36 H12        15.1143    4.0460   18.0915 H         1 <0>         0.1300
     37 H13        13.3765    5.3986   19.1666 H         1 <0>         0.1400
     38 H14        11.7656    7.6393   18.7838 H         1 <0>         0.4200
     39 H15        12.3314    8.1445   14.9352 H         1 <0>         0.1300
     40 H16        13.5928    9.1800   15.6725 H         1 <0>         0.1300
     41 H17        14.9995    6.6285   14.6670 H         1 <0>         0.1400
     42 H18        17.3671    1.0539   16.4977 H         1 <0>         0.0700
     43 H19        16.7192    1.5524   14.9159 H         1 <0>         0.0900
     44 H20        18.8703    1.0823   13.8396 H         1 <0>         0.0800
     45 H21        18.3579   -0.3570   14.7553 H         1 <0>         0.0900
@<TRIPOS>BOND
     1    1    2 1
     2    1   25 1
     3    1   26 1
     4    1   27 1
     5    2    3 1
     6    3    4 1
     7    3   28 1
     8    3   29 1
     9    4    5 2
    10    4    6 am
    11    6   24 1
    12    6    7 1
    13    7    8 1
    14    7   30 1
    15    7   31 1
    16    8    9 1
    17    8   32 1
    18    8   33 1
    19    9   10 1
    20    9   23 1
    21    9   34 1
    22   10   11 am
    23   10   35 1
    24   11   12 2
    25   11   13 1
    26   13   22 ar
    27   13   14 ar
    28   14   15 ar
    29   14   36 1
    30   15   16 ar
    31   15   37 1
    32   16   21 ar
    33   16   17 1
    34   17   18 am
    35   17   38 1
    36   18   19 2
    37   18   20 1
    38   20   21 1
    39   20   39 1
    40   20   40 1
    41   21   22 ar
    42   22   41 1
    43   23   24 1
    44   23   42 1
    45   23   43 1
    46   24   44 1
    47   24   45 1
##########                 Name:            smyd3_554
##########          Protonation:                 none
##########               SMILES:   O=C1CC2=C(C=CC(C(=O)NC3CCN(C4=NNC=N4)CC3)=C2)N1
##########            Long Name:   NO_LONG_NAME
##########          FlexRecCode: 1
##########               Number:                 1450
##########   Ligand Source File: /proj/zinc22/users/x_andlu/OGG1/revisions/docking/targets/smyd3/db2gen/split_par
##########                 Rank:                    1
##########               Setnum:                    1
##########             Matchnum:                    4
##########                Cloud:                    1
##########        Electrostatic:           -16.920778
##########                 Gist:             0.000000
##########        Van der Waals:           -33.693855
##########  Ligand Polar Desolv:             7.828087
########## Ligand Apolar Desolv:            -2.275990
##########      Internal Energy:             0.000000
##########      Receptor Energy:             0.000000
########## Receptor Desolvation:             0.000000
########## Receptor Hydrophobic:             0.000000
##########         Total Energy:           -45.062534
##########        Ligand Charge:             0.000000
##########            Arbitrary:    +999.9990
##########        Ligand Energy:             0.000000

@<TRIPOS>MOLECULE
smyd3_554      none
   42    45     0     0     0
SMALL
USER_CHARGES

@<TRIPOS>ATOM
      1 O1         11.1870   10.0760   16.5667 O.2       1 <0>        -0.4900
      2 C1         11.8881    9.0892   16.6415 C.2       1 <0>         0.5300
      3 C2         12.8668    8.6002   15.5950 C.3       1 <0>        -0.1200
      4 C3         13.4596    7.3484   16.2010 C.ar      1 <0>        -0.1500
      5 C4         12.8483    7.1934   17.4455 C.ar      1 <0>         0.1700
      6 C5         13.2022    6.1048   18.2457 C.ar      1 <0>        -0.1500
      7 C6         14.1393    5.1984   17.8099 C.ar      1 <0>        -0.0500
      8 C7         14.7460    5.3590   16.5610 C.ar      1 <0>        -0.1600
      9 C8         15.7523    4.3860   16.0928 C.2       1 <0>         0.5700
     10 O2         16.2772    4.5299   15.0056 O.2       1 <0>        -0.5300
     11 N1         16.0892    3.3381   16.8705 N.am      1 <0>        -0.7200
     12 C9         17.0881    2.3723   16.4058 C.3       1 <0>         0.1400
     13 C10        16.4080    1.3109   15.5367 C.3       1 <0>        -0.1300
     14 C11        17.4447    0.2715   15.1046 C.3       1 <0>         0.0700
     15 N2         18.0400   -0.3516   16.2936 N.pl3     1 <0>        -0.4400
     16 C12        18.8942   -1.3964   15.9363 C.2       1 <0>         0.4000
     17 N3         20.1579   -1.4995   16.2738 N.2       1 <0>        -0.3500
     18 N4         20.6319   -2.6945   15.7086 N.pl3     1 <0>        -0.4800
     19 C13        19.5976   -3.2393   15.0466 C.2       1 <0>         0.2800
     20 N5         18.5608   -2.4534   15.1894 N.2       1 <0>        -0.5500
     21 C14        18.7394    0.6410   17.1194 C.3       1 <0>         0.0700
     22 C15        17.7413    1.6914   17.6117 C.3       1 <0>        -0.1300
     23 C16        14.3929    6.4485   15.7583 C.ar      1 <0>        -0.0000
     24 N6         11.9414    8.2243   17.6680 N.am      1 <0>        -0.6600
     25 H1         12.3475    8.3660   14.6657 H         1 <0>         0.1300
     26 H2         13.6434    9.3450   15.4204 H         1 <0>         0.1300
     27 H3         12.7368    5.9742   19.2116 H         1 <0>         0.1400
     28 H4         14.4076    4.3592   18.4346 H         1 <0>         0.1400
     29 H5         15.6704    3.2233   17.7379 H         1 <0>         0.4000
     30 H6         17.8501    2.8888   15.8221 H         1 <0>         0.0900
     31 H7         15.6195    0.8223   16.1093 H         1 <0>         0.0800
     32 H8         15.9776    1.7843   14.6542 H         1 <0>         0.0800
     33 H9         18.2256    0.7585   14.5204 H         1 <0>         0.0500
     34 H10        16.9609   -0.4935   14.4974 H         1 <0>         0.1000
     35 H11        21.5302   -3.0537   15.7790 H         1 <0>         0.4400
     36 H12        19.6183   -4.1658   14.4920 H         1 <0>         0.2300
     37 H13        19.5141    1.1263   16.5258 H         1 <0>         0.0500
     38 H14        19.1957    0.1442   17.9756 H         1 <0>         0.0900
     39 H15        18.2635    2.4366   18.2117 H         1 <0>         0.0800
     40 H16        16.9738    1.2088   18.2169 H         1 <0>         0.0800
     41 H17        14.8558    6.5816   14.7917 H         1 <0>         0.1400
     42 H18        11.4080    8.3093   18.4737 H         1 <0>         0.4200
@<TRIPOS>BOND
     1    1    2 2
     2    2   24 am
     3    2    3 1
     4    3    4 1
     5    3   25 1
     6    3   26 1
     7    4   23 ar
     8    4    5 ar
     9    5    6 ar
    10    5   24 1
    11    6    7 ar
    12    6   27 1
    13    7    8 ar
    14    7   28 1
    15    8    9 1
    16    8   23 ar
    17    9   10 2
    18    9   11 am
    19   11   12 1
    20   11   29 1
    21   12   22 1
    22   12   13 1
    23   12   30 1
    24   13   14 1
    25   13   31 1
    26   13   32 1
    27   14   15 1
    28   14   33 1
    29   14   34 1
    30   15   16 1
    31   15   21 1
    32   16   20 1
    33   16   17 2
    34   17   18 1
    35   18   19 1
    36   18   35 1
    37   19   20 2
    38   19   36 1
    39   21   22 1
    40   21   37 1
    41   21   38 1
    42   22   39 1
    43   22   40 1
    44   23   41 1
    45   24   42 1
##########                 Name:            smyd3_555
##########          Protonation:                 none
##########               SMILES:   O=C1CC2=C(C=CC(C(=O)NC3CCN(C4=NC=CO4)CC3)=C2)N1
##########            Long Name:   NO_LONG_NAME
##########          FlexRecCode: 1
##########               Number:                 1454
##########   Ligand Source File: /proj/zinc22/users/x_andlu/OGG1/revisions/docking/targets/smyd3/db2gen/split_par
##########                 Rank:                    1
##########               Setnum:                    8
##########             Matchnum:                   15
##########                Cloud:                    1
##########        Electrostatic:           -18.560505
##########                 Gist:             0.000000
##########        Van der Waals:           -32.376793
##########  Ligand Polar Desolv:             6.708048
########## Ligand Apolar Desolv:            -0.798493
##########      Internal Energy:             0.000000
##########      Receptor Energy:             0.000000
########## Receptor Desolvation:             0.000000
########## Receptor Hydrophobic:             0.000000
##########         Total Energy:           -45.027740
##########        Ligand Charge:             0.000000
##########            Arbitrary:    +999.9990
##########        Ligand Energy:             0.000000

@<TRIPOS>MOLECULE
smyd3_555      none
   42    45     0     0     0
SMALL
USER_CHARGES

@<TRIPOS>ATOM
      1 O1         11.3046    9.9924   16.9979 O.2       1 <0>        -0.4900
      2 C1         11.9960    8.9981   16.9334 C.2       1 <0>         0.5300
      3 C2         12.8936    8.6003   15.7810 C.3       1 <0>        -0.1200
      4 C3         13.5100    7.2942   16.2277 C.ar      1 <0>        -0.1500
      5 C4         12.9841    7.0300   17.4926 C.ar      1 <0>         0.1700
      6 C5         13.3777    5.8702   18.1638 C.ar      1 <0>        -0.1500
      7 C6         14.2705    5.0010   17.5831 C.ar      1 <0>        -0.0500
      8 C7         14.7917    5.2712   16.3146 C.ar      1 <0>        -0.1600
      9 C8         15.7503    4.3383   15.6906 C.2       1 <0>         0.5700
     10 O2         15.8325    4.2710   14.4795 O.2       1 <0>        -0.5300
     11 N1         16.5345    3.5611   16.4636 N.am      1 <0>        -0.7200
     12 C9         17.4860    2.6351   15.8444 C.3       1 <0>         0.1400
     13 C10        16.8095    1.2798   15.6211 C.3       1 <0>        -0.1300
     14 C11        17.8253    0.2992   15.0305 C.3       1 <0>         0.0600
     15 N2         18.9601    0.1543   15.9512 N.pl3     1 <0>        -0.4400
     16 C12        19.8336   -0.8214   15.5108 C.2       1 <0>         0.3700
     17 N3         20.9397   -1.1856   16.1118 N.2       1 <0>        -0.5100
     18 C13        21.5200   -2.1628   15.3884 C.2       1 <0>        -0.0200
     19 C14        20.7494   -2.3910   14.3152 C.2       1 <0>        -0.0900
     20 O3         19.6942   -1.5508   14.3929 O.3       1 <0>        -0.2100
     21 C15        19.6542    1.4340   16.1439 C.3       1 <0>         0.0800
     22 C16        18.6931    2.4483   16.7678 C.3       1 <0>        -0.1300
     23 C17        14.3986    6.4321   15.6410 C.ar      1 <0>        -0.0000
     24 N4         12.1084    8.0423   17.8708 N.am      1 <0>        -0.6600
     25 H1         12.3085    8.4558   14.8729 H         1 <0>         0.1300
     26 H2         13.6661    9.3524   15.6210 H         1 <0>         0.1300
     27 H3         12.9784    5.6548   19.1440 H         1 <0>         0.1400
     28 H4         14.5700    4.1063   18.1085 H         1 <0>         0.1400
     29 H5         16.4690    3.6149   17.4299 H         1 <0>         0.4000
     30 H6         17.8180    3.0395   14.8881 H         1 <0>         0.0900
     31 H7         16.4429    0.8948   16.5727 H         1 <0>         0.0800
     32 H8         15.9748    1.3990   14.9304 H         1 <0>         0.0900
     33 H9         18.1811    0.6780   14.0724 H         1 <0>         0.0600
     34 H10        17.3506   -0.6709   14.8837 H         1 <0>         0.0900
     35 H11        22.4435   -2.6691   15.6280 H         1 <0>         0.1900
     36 H12        20.9370   -3.1128   13.5339 H         1 <0>         0.2200
     37 H13        20.0014    1.8075   15.1806 H         1 <0>         0.0600
     38 H14        20.5079    1.2879   16.8057 H         1 <0>         0.1000
     39 H15        19.2041    3.4025   16.8963 H         1 <0>         0.0900
     40 H16        18.3561    2.0818   17.7374 H         1 <0>         0.0800
     41 H17        14.7954    6.6500   14.6604 H         1 <0>         0.1400
     42 H18        11.6330    8.0569   18.7162 H         1 <0>         0.4200
@<TRIPOS>BOND
     1    1    2 2
     2    2   24 am
     3    2    3 1
     4    3    4 1
     5    3   25 1
     6    3   26 1
     7    4   23 ar
     8    4    5 ar
     9    5    6 ar
    10    5   24 1
    11    6    7 ar
    12    6   27 1
    13    7    8 ar
    14    7   28 1
    15    8    9 1
    16    8   23 ar
    17    9   10 2
    18    9   11 am
    19   11   12 1
    20   11   29 1
    21   12   22 1
    22   12   13 1
    23   12   30 1
    24   13   14 1
    25   13   31 1
    26   13   32 1
    27   14   15 1
    28   14   33 1
    29   14   34 1
    30   15   16 1
    31   15   21 1
    32   16   20 1
    33   16   17 2
    34   17   18 1
    35   18   19 2
    36   18   35 1
    37   19   20 1
    38   19   36 1
    39   21   22 1
    40   21   37 1
    41   21   38 1
    42   22   39 1
    43   22   40 1
    44   23   41 1
    45   24   42 1
##########                 Name:            smyd3_556
##########          Protonation:                 none
##########               SMILES:   O=C1CC2=C(C=CC(C(=O)NC3CCN(C4=NNN=N4)CC3)=C2)N1
##########            Long Name:   NO_LONG_NAME
##########          FlexRecCode: 1
##########               Number:                 1460
##########   Ligand Source File: /proj/zinc22/users/x_andlu/OGG1/revisions/docking/targets/smyd3/db2gen/split_par
##########                 Rank:                    1
##########               Setnum:                    3
##########             Matchnum:                    7
##########                Cloud:                    1
##########        Electrostatic:           -18.208553
##########                 Gist:             0.000000
##########        Van der Waals:           -32.832287
##########  Ligand Polar Desolv:             6.611954
########## Ligand Apolar Desolv:            -1.054948
##########      Internal Energy:             0.000000
##########      Receptor Energy:             0.000000
########## Receptor Desolvation:             0.000000
########## Receptor Hydrophobic:             0.000000
##########         Total Energy:           -45.483833
##########        Ligand Charge:             0.000000
##########            Arbitrary:    +999.9990
##########        Ligand Energy:             0.000000

@<TRIPOS>MOLECULE
smyd3_556      none
   41    44     0     0     0
SMALL
USER_CHARGES

@<TRIPOS>ATOM
      1 O1         11.4663   10.0372   17.0271 O.2       1 <0>        -0.4900
      2 C1         12.1263    9.0224   16.9534 C.2       1 <0>         0.5300
      3 C2         13.0268    8.6167   15.8059 C.3       1 <0>        -0.1200
      4 C3         13.5947    7.2835   16.2364 C.ar      1 <0>        -0.1500
      5 C4         13.0429    7.0135   17.4891 C.ar      1 <0>         0.1700
      6 C5         13.3897    5.8296   18.1438 C.ar      1 <0>        -0.1500
      7 C6         14.2621    4.9427   17.5590 C.ar      1 <0>        -0.0500
      8 C7         14.8094    5.2189   16.3028 C.ar      1 <0>        -0.1600
      9 C8         15.7462    4.2669   15.6745 C.2       1 <0>         0.5700
     10 O2         15.8431    4.2190   14.4636 O.2       1 <0>        -0.5300
     11 N1         16.4942    3.4509   16.4433 N.am      1 <0>        -0.7200
     12 C9         17.4241    2.5060   15.8198 C.3       1 <0>         0.1400
     13 C10        16.7076    1.1776   15.5623 C.3       1 <0>        -0.1300
     14 C11        17.6996    0.1755   14.9672 C.3       1 <0>         0.0600
     15 N2         18.8161   -0.0227   15.9001 N.pl3     1 <0>        -0.4300
     16 C12        19.6729   -1.0285   15.4486 C.2       1 <0>         0.3800
     17 N3         19.3333   -2.0723   14.7213 N.2       1 <0>        -0.3000
     18 N4         20.5177   -2.7978   14.5112 N.pl3     1 <0>        -0.2900
     19 N5         21.4624   -2.1631   15.1173 N.2       1 <0>         0.0200
     20 N6         20.9840   -1.1108   15.6800 N.2       1 <0>        -0.3300
     21 C13        19.5482    1.2302   16.1259 C.3       1 <0>         0.0600
     22 C14        18.6115    2.2635   16.7556 C.3       1 <0>        -0.1300
     23 C15        14.4632    6.4039   15.6457 C.ar      1 <0>        -0.0000
     24 N7         12.1949    8.0466   17.8743 N.am      1 <0>        -0.6600
     25 H1         12.4500    8.5078   14.8875 H         1 <0>         0.1300
     26 H2         13.8251    9.3463   15.6703 H         1 <0>         0.1300
     27 H3         12.9700    5.6094   19.1143 H         1 <0>         0.1400
     28 H4         14.5254    4.0293   18.0716 H         1 <0>         0.1400
     29 H5         16.4169    3.4892   17.4094 H         1 <0>         0.4000
     30 H6         17.7822    2.9167   14.8757 H         1 <0>         0.0900
     31 H7         16.3156    0.7874   16.5016 H         1 <0>         0.0800
     32 H8         15.8869    1.3363   14.8627 H         1 <0>         0.0900
     33 H9         18.0807    0.5600   14.0211 H         1 <0>         0.0500
     34 H10        17.1961   -0.7759   14.7960 H         1 <0>         0.1000
     35 H11        20.6072   -3.6225   14.0085 H         1 <0>         0.4700
     36 H12        19.9207    1.6097   15.1744 H         1 <0>         0.0600
     37 H13        20.3875    1.0445   16.7962 H         1 <0>         0.1000
     38 H14        19.1510    3.1982   16.9087 H         1 <0>         0.0900
     39 H15        18.2494    1.8905   17.7137 H         1 <0>         0.0800
     40 H16        14.8805    6.6267   14.6748 H         1 <0>         0.1400
     41 H17        11.7084    8.0612   18.7134 H         1 <0>         0.4200
@<TRIPOS>BOND
     1    1    2 2
     2    2   24 am
     3    2    3 1
     4    3    4 1
     5    3   25 1
     6    3   26 1
     7    4   23 ar
     8    4    5 ar
     9    5    6 ar
    10    5   24 1
    11    6    7 ar
    12    6   27 1
    13    7    8 ar
    14    7   28 1
    15    8    9 1
    16    8   23 ar
    17    9   10 2
    18    9   11 am
    19   11   12 1
    20   11   29 1
    21   12   22 1
    22   12   13 1
    23   12   30 1
    24   13   14 1
    25   13   31 1
    26   13   32 1
    27   14   15 1
    28   14   33 1
    29   14   34 1
    30   15   16 1
    31   15   21 1
    32   16   20 1
    33   16   17 2
    34   17   18 1
    35   18   19 1
    36   18   35 1
    37   19   20 2
    38   21   22 1
    39   21   36 1
    40   21   37 1
    41   22   38 1
    42   22   39 1
    43   23   40 1
    44   24   41 1
##########                 Name:            smyd3_570
##########          Protonation:                 none
##########               SMILES:   O=C1CC2=C(C=CC(C(=O)NC3CC[NH+](C4CCCC4)CC3)=C2)N1
##########            Long Name:   NO_LONG_NAME
##########          FlexRecCode: 1
##########               Number:                 1495
##########   Ligand Source File: /proj/zinc22/users/x_andlu/OGG1/revisions/docking/targets/smyd3/db2gen/split_par
##########                 Rank:                    1
##########               Setnum:                    6
##########             Matchnum:                   20
##########                Cloud:                    1
##########        Electrostatic:           -26.992256
##########                 Gist:             0.000000
##########        Van der Waals:           -32.209789
##########  Ligand Polar Desolv:             8.464502
########## Ligand Apolar Desolv:            -2.539142
##########      Internal Energy:             0.000000
##########      Receptor Energy:             0.000000
########## Receptor Desolvation:             0.000000
########## Receptor Hydrophobic:             0.000000
##########         Total Energy:           -53.276684
##########        Ligand Charge:             1.000000
##########            Arbitrary:    +999.9990
##########        Ligand Energy:             0.000000

@<TRIPOS>MOLECULE
smyd3_570      none
   50    53     0     0     0
SMALL
USER_CHARGES

@<TRIPOS>ATOM
      1 O1         11.4361    9.7779   16.9250 O.2       1 <0>        -0.4800
      2 C1         12.1416    8.7943   16.8502 C.2       1 <0>         0.5300
      3 C2         13.1368    8.4831   15.7526 C.3       1 <0>        -0.1200
      4 C3         13.7291    7.1528   16.1584 C.ar      1 <0>        -0.1500
      5 C4         13.1026    6.7980   17.3534 C.ar      1 <0>         0.1900
      6 C5         13.4524    5.5964   17.9736 C.ar      1 <0>        -0.1500
      7 C6         14.4005    4.7751   17.4112 C.ar      1 <0>        -0.0500
      8 C7         15.0226    5.1363   16.2128 C.ar      1 <0>        -0.1700
      9 C8         16.0402    4.2544   15.6083 C.2       1 <0>         0.5700
     10 O2         16.2235    4.2721   14.4066 O.2       1 <0>        -0.5300
     11 N1         16.7664    3.4295   16.3886 N.am      1 <0>        -0.7300
     12 C9         17.7764    2.5544   15.7888 C.3       1 <0>         0.1400
     13 C10        17.1367    1.2134   15.4176 C.3       1 <0>        -0.1600
     14 C11        18.2132    0.2765   14.8653 C.3       1 <0>        -0.0100
     15 N2         19.2488    0.0613   15.8829 N.4       1 <0>        -0.3800
     16 H1         18.8240   -0.3066   16.7209 H         1 <0>         0.4200
     17 C12        20.2385   -0.8991   15.3769 C.3       1 <0>         0.0200
     18 C13        19.5677   -2.2652   15.1238 C.3       1 <0>        -0.1500
     19 C14        20.6419   -3.2992   15.5433 C.3       1 <0>        -0.1200
     20 C15        21.2873   -2.6367   16.7856 C.3       1 <0>        -0.1300
     21 C16        21.3318   -1.1354   16.4334 C.3       1 <0>        -0.1500
     22 C17        19.9155    1.3320   16.1916 C.3       1 <0>        -0.0000
     23 C18        18.9046    2.3096   16.7948 C.3       1 <0>        -0.1600
     24 C19        14.6737    6.3390   15.5904 C.ar      1 <0>         0.0000
     25 N3         12.1868    7.7764   17.7256 N.am      1 <0>        -0.6600
     26 H2         12.6310    8.3988   14.7907 H         1 <0>         0.1300
     27 H3         13.9111    9.2492   15.7103 H         1 <0>         0.1300
     28 H4         12.9754    5.3110   18.8997 H         1 <0>         0.1400
     29 H5         14.6652    3.8474   17.8967 H         1 <0>         0.1300
     30 H6         16.6201    3.4155   17.3475 H         1 <0>         0.4100
     31 H7         18.1822    3.0261   14.8937 H         1 <0>         0.1100
     32 H8         16.6861    0.7673   16.3041 H         1 <0>         0.0900
     33 H9         16.3697    1.3733   14.6598 H         1 <0>         0.1200
     34 H10        18.6630    0.7233   13.9786 H         1 <0>         0.1300
     35 H11        17.7607   -0.6791   14.6002 H         1 <0>         0.1400
     36 H12        20.6844   -0.5249   14.4554 H         1 <0>         0.1400
     37 H13        18.6746   -2.3715   15.7395 H         1 <0>         0.0900
     38 H14        19.3202   -2.3788   14.0683 H         1 <0>         0.1000
     39 H15        21.3781   -3.4343   14.7511 H         1 <0>         0.0800
     40 H16        20.1797   -4.2500   15.8088 H         1 <0>         0.0900
     41 H17        22.2949   -3.0216   16.9429 H         1 <0>         0.0900
     42 H18        20.6719   -2.8031   17.6698 H         1 <0>         0.0800
     43 H19        22.3085   -0.8766   16.0246 H         1 <0>         0.1000
     44 H20        21.1286   -0.5367   17.3214 H         1 <0>         0.0900
     45 H21        20.3290    1.7564   15.2766 H         1 <0>         0.1300
     46 H22        20.7200    1.1552   16.9055 H         1 <0>         0.1400
     47 H23        19.4013    3.2530   17.0216 H         1 <0>         0.1200
     48 H24        18.4906    1.8862   17.7100 H         1 <0>         0.0900
     49 H25        15.1481    6.6271   14.6640 H         1 <0>         0.1500
     50 H26        11.6421    7.7290   18.5269 H         1 <0>         0.4200
@<TRIPOS>BOND
     1    1    2 2
     2    2   25 am
     3    2    3 1
     4    3    4 1
     5    3   26 1
     6    3   27 1
     7    4   24 ar
     8    4    5 ar
     9    5    6 ar
    10    5   25 1
    11    6    7 ar
    12    6   28 1
    13    7    8 ar
    14    7   29 1
    15    8    9 1
    16    8   24 ar
    17    9   10 2
    18    9   11 am
    19   11   12 1
    20   11   30 1
    21   12   23 1
    22   12   13 1
    23   12   31 1
    24   13   14 1
    25   13   32 1
    26   13   33 1
    27   14   15 1
    28   14   34 1
    29   14   35 1
    30   15   16 1
    31   15   17 1
    32   15   22 1
    33   17   21 1
    34   17   18 1
    35   17   36 1
    36   18   19 1
    37   18   37 1
    38   18   38 1
    39   19   20 1
    40   19   39 1
    41   19   40 1
    42   20   21 1
    43   20   41 1
    44   20   42 1
    45   21   43 1
    46   21   44 1
    47   22   23 1
    48   22   45 1
    49   22   46 1
    50   23   47 1
    51   23   48 1
    52   24   49 1
    53   25   50 1
##########                 Name:            smyd3_572
##########          Protonation:                 none
##########               SMILES:   O=C1CC2=C(C=CC(C(=O)NC3CC[NH+](C4CCOC4)CC3)=C2)N1
##########            Long Name:   NO_LONG_NAME
##########          FlexRecCode: 1
##########               Number:                 1507
##########   Ligand Source File: /proj/zinc22/users/x_andlu/OGG1/revisions/docking/targets/smyd3/db2gen/split_par
##########                 Rank:                    1
##########               Setnum:                    6
##########             Matchnum:                   20
##########                Cloud:                    1
##########        Electrostatic:           -21.706732
##########                 Gist:             0.000000
##########        Van der Waals:           -32.580219
##########  Ligand Polar Desolv:             8.150179
########## Ligand Apolar Desolv:            -1.717766
##########      Internal Energy:             0.000000
##########      Receptor Energy:             0.000000
########## Receptor Desolvation:             0.000000
########## Receptor Hydrophobic:             0.000000
##########         Total Energy:           -47.854538
##########        Ligand Charge:             1.000000
##########            Arbitrary:    +999.9990
##########        Ligand Energy:             0.000000

@<TRIPOS>MOLECULE
smyd3_572      none
   48    51     0     0     0
SMALL
USER_CHARGES

@<TRIPOS>ATOM
      1 O1         11.1720    9.7496   16.8951 O.2       1 <0>        -0.4800
      2 C1         11.9427    8.8135   16.8670 C.2       1 <0>         0.5300
      3 C2         12.8721    8.4479   15.7292 C.3       1 <0>        -0.1200
      4 C3         13.5928    7.2145   16.2237 C.ar      1 <0>        -0.1500
      5 C4         13.0879    6.9556   17.4983 C.ar      1 <0>         0.1900
      6 C5         13.5743    5.8580   18.2123 C.ar      1 <0>        -0.1500
      7 C6         14.5451    5.0451   17.6577 C.ar      1 <0>        -0.0500
      8 C7         15.0436    5.3124   16.3796 C.ar      1 <0>        -0.1700
      9 C8         16.0787    4.4420   15.7884 C.2       1 <0>         0.5700
     10 O2         16.8500    4.8897   14.9619 O.2       1 <0>        -0.5300
     11 N1         16.1691    3.1511   16.1648 N.am      1 <0>        -0.7300
     12 C9         17.1965    2.2872   15.5780 C.3       1 <0>         0.1400
     13 C10        16.6909    0.8421   15.5417 C.3       1 <0>        -0.1600
     14 C11        17.7985   -0.0666   15.0038 C.3       1 <0>        -0.0100
     15 N2         18.9767    0.0211   15.8747 N.4       1 <0>        -0.3800
     16 H1         18.7154   -0.2243   16.8179 H         1 <0>         0.4200
     17 C12        20.0074   -0.9104   15.3971 C.3       1 <0>        -0.0100
     18 C13        21.2061   -0.9374   16.3714 C.3       1 <0>        -0.1700
     19 C14        21.2574   -2.4011   16.8628 C.3       1 <0>         0.0400
     20 O3         20.6061   -3.1626   15.8227 O.3       1 <0>        -0.3400
     21 C15        19.4762   -2.3608   15.4150 C.3       1 <0>         0.0300
     22 C16        19.5091    1.3889   15.8561 C.3       1 <0>        -0.0000
     23 C17        18.4681    2.3533   16.4288 C.3       1 <0>        -0.1600
     24 C18        14.5549    6.4109   15.6652 C.ar      1 <0>         0.0000
     25 N3         12.1315    7.9061   17.8394 N.am      1 <0>        -0.6600
     26 H2         12.3023    8.2220   14.8279 H         1 <0>         0.1300
     27 H3         13.5805    9.2544   15.5402 H         1 <0>         0.1300
     28 H4         13.1925    5.6477   19.2003 H         1 <0>         0.1400
     29 H5         14.9183    4.1983   18.2146 H         1 <0>         0.1300
     30 H6         15.5537    2.7938   16.8241 H         1 <0>         0.4100
     31 H7         17.4183    2.6212   14.5645 H         1 <0>         0.1100
     32 H8         16.4195    0.5260   16.5490 H         1 <0>         0.0900
     33 H9         15.8182    0.7780   14.8919 H         1 <0>         0.1200
     34 H10        18.0679    0.2494   13.9959 H         1 <0>         0.1400
     35 H11        17.4420   -1.0963   14.9781 H         1 <0>         0.1300
     36 H12        20.3357   -0.6340   14.3951 H         1 <0>         0.1600
     37 H13        22.1275   -0.6768   15.8507 H         1 <0>         0.1200
     38 H14        21.0351   -0.2578   17.2063 H         1 <0>         0.1000
     39 H15        22.2912   -2.7260   16.9801 H         1 <0>         0.1200
     40 H16        20.7171   -2.5046   17.8038 H         1 <0>         0.0800
     41 H17        18.6628   -2.4582   16.1339 H         1 <0>         0.0800
     42 H18        19.1417   -2.6548   14.4201 H         1 <0>         0.1200
     43 H19        19.7420    1.6738   14.8302 H         1 <0>         0.1400
     44 H20        20.4156    1.4331   16.4599 H         1 <0>         0.1400
     45 H21        18.8645    3.3684   16.4125 H         1 <0>         0.1200
     46 H22        18.2347    2.0693   17.4550 H         1 <0>         0.0900
     47 H23        14.9332    6.6260   14.6767 H         1 <0>         0.1500
     48 H24        11.6551    7.9134   18.6843 H         1 <0>         0.4200
@<TRIPOS>BOND
     1    1    2 2
     2    2   25 am
     3    2    3 1
     4    3    4 1
     5    3   26 1
     6    3   27 1
     7    4   24 ar
     8    4    5 ar
     9    5    6 ar
    10    5   25 1
    11    6    7 ar
    12    6   28 1
    13    7    8 ar
    14    7   29 1
    15    8    9 1
    16    8   24 ar
    17    9   10 2
    18    9   11 am
    19   11   12 1
    20   11   30 1
    21   12   23 1
    22   12   13 1
    23   12   31 1
    24   13   14 1
    25   13   32 1
    26   13   33 1
    27   14   15 1
    28   14   34 1
    29   14   35 1
    30   15   16 1
    31   15   17 1
    32   15   22 1
    33   17   21 1
    34   17   18 1
    35   17   36 1
    36   18   19 1
    37   18   37 1
    38   18   38 1
    39   19   20 1
    40   19   39 1
    41   19   40 1
    42   20   21 1
    43   21   41 1
    44   21   42 1
    45   22   23 1
    46   22   43 1
    47   22   44 1
    48   23   45 1
    49   23   46 1
    50   24   47 1
    51   25   48 1
##########                 Name:            smyd3_582
##########          Protonation:                 none
##########               SMILES:   CNC(=O)C[NH+]1CCC(NC(=O)C2=CC=C3NC(=O)CC3=C2)CC1
##########            Long Name:   NO_LONG_NAME
##########          FlexRecCode: 1
##########               Number:                 1538
##########   Ligand Source File: /proj/zinc22/users/x_andlu/OGG1/revisions/docking/targets/smyd3/db2gen/split_par
##########                 Rank:                    1
##########               Setnum:                    1
##########             Matchnum:                   16
##########                Cloud:                    1
##########        Electrostatic:           -25.350641
##########                 Gist:             0.000000
##########        Van der Waals:           -33.716145
##########  Ligand Polar Desolv:             7.410353
########## Ligand Apolar Desolv:            -1.573711
##########      Internal Energy:             0.000000
##########      Receptor Energy:             0.000000
########## Receptor Desolvation:             0.000000
########## Receptor Hydrophobic:             0.000000
##########         Total Energy:           -53.230145
##########        Ligand Charge:             1.000000
##########            Arbitrary:    +999.9990
##########        Ligand Energy:             0.000000

@<TRIPOS>MOLECULE
smyd3_582      none
   47    49     0     0     0
SMALL
USER_CHARGES

@<TRIPOS>ATOM
      1 C1         21.7534   -3.5096   17.8518 C.3       1 <0>         0.0800
      2 N1         21.2951   -2.7387   16.6935 N.am      1 <0>        -0.7100
      3 C2         20.2613   -1.8832   16.8198 C.2       1 <0>         0.5000
      4 O1         19.7105   -1.7516   17.8923 O.2       1 <0>        -0.5300
      5 C3         19.7898   -1.0900   15.6282 C.3       1 <0>        -0.0300
      6 N2         18.7652   -0.1277   16.0550 N.4       1 <0>        -0.3700
      7 H1         18.0336   -0.6157   16.5497 H         1 <0>         0.4300
      8 C4         19.3730    0.8703   16.9433 C.3       1 <0>        -0.0100
      9 C5         18.2944    1.8273   17.4553 C.3       1 <0>        -0.1500
     10 C6         17.6392    2.5332   16.2647 C.3       1 <0>         0.1400
     11 N3         16.5543    3.3941   16.7421 N.am      1 <0>        -0.7300
     12 C7         16.1707    4.4613   16.0138 C.2       1 <0>         0.5700
     13 O2         16.7251    4.7095   14.9605 O.2       1 <0>        -0.5300
     14 C8         15.0776    5.3287   16.4948 C.ar      1 <0>        -0.1700
     15 C9         14.4371    5.0480   17.7045 C.ar      1 <0>        -0.0500
     16 C10        13.4181    5.8559   18.1519 C.ar      1 <0>        -0.1500
     17 C11        13.0151    6.9629   17.4024 C.ar      1 <0>         0.1900
     18 N4         12.0257    7.9098   17.6455 N.am      1 <0>        -0.6600
     19 C12        11.9476    8.8300   16.6700 C.2       1 <0>         0.5300
     20 O3         11.1780    9.7662   16.6229 O.2       1 <0>        -0.4800
     21 C13        13.0000    8.4787   15.6399 C.3       1 <0>        -0.1200
     22 C14        13.6609    7.2382   16.1964 C.ar      1 <0>        -0.1500
     23 C15        14.6751    6.4374   15.7426 C.ar      1 <0>         0.0000
     24 C16        17.0737    1.4800   15.3076 C.3       1 <0>        -0.1600
     25 C17        18.1976    0.5358   14.8751 C.3       1 <0>        -0.0000
     26 H2         22.0712   -2.8271   18.6400 H         1 <0>         0.0700
     27 H3         20.9385   -4.1338   18.2183 H         1 <0>         0.0700
     28 H4         22.5917   -4.1419   17.5587 H         1 <0>         0.0900
     29 H5         21.7356   -2.8438   15.8357 H         1 <0>         0.4100
     30 H6         19.3662   -1.7666   14.8859 H         1 <0>         0.1600
     31 H7         20.6327   -0.5538   15.1921 H         1 <0>         0.1600
     32 H8         20.1271    1.4337   16.3939 H         1 <0>         0.1300
     33 H9         19.8417    0.3661   17.7886 H         1 <0>         0.1500
     34 H10        18.7480    2.5685   18.1133 H         1 <0>         0.1200
     35 H11        17.5398    1.2653   18.0057 H         1 <0>         0.1000
     36 H12        18.3826    3.1378   15.7452 H         1 <0>         0.1100
     37 H13        16.1119    3.1961   17.5824 H         1 <0>         0.4100
     38 H14        14.7431    4.1937   18.2899 H         1 <0>         0.1300
     39 H15        12.9269    5.6327   19.0875 H         1 <0>         0.1400
     40 H16        11.4564    7.9060   18.4308 H         1 <0>         0.4200
     41 H17        12.5360    8.2652   14.6769 H         1 <0>         0.1300
     42 H18        13.7247    9.2871   15.5429 H         1 <0>         0.1300
     43 H19        15.1635    6.6628   14.8061 H         1 <0>         0.1500
     44 H20        16.2938    0.9102   15.8128 H         1 <0>         0.0900
     45 H21        16.6548    1.9729   14.4302 H         1 <0>         0.1200
     46 H22        18.9767    1.1065   14.3697 H         1 <0>         0.1400
     47 H23        17.7979   -0.2152   14.1936 H         1 <0>         0.1400
@<TRIPOS>BOND
     1    1    2 1
     2    1   26 1
     3    1   27 1
     4    1   28 1
     5    2    3 am
     6    2   29 1
     7    3    4 2
     8    3    5 1
     9    5    6 1
    10    5   30 1
    11    5   31 1
    12    6    7 1
    13    6   25 1
    14    6    8 1
    15    8    9 1
    16    8   32 1
    17    8   33 1
    18    9   10 1
    19    9   34 1
    20    9   35 1
    21   10   11 1
    22   10   24 1
    23   10   36 1
    24   11   12 am
    25   11   37 1
    26   12   13 2
    27   12   14 1
    28   14   23 ar
    29   14   15 ar
    30   15   16 ar
    31   15   38 1
    32   16   17 ar
    33   16   39 1
    34   17   22 ar
    35   17   18 1
    36   18   19 am
    37   18   40 1
    38   19   20 2
    39   19   21 1
    40   21   22 1
    41   21   41 1
    42   21   42 1
    43   22   23 ar
    44   23   43 1
    45   24   25 1
    46   24   44 1
    47   24   45 1
    48   25   46 1
    49   25   47 1
##########                 Name:            smyd3_584
##########          Protonation:                 none
##########               SMILES:   CC(C)(O)C[NH+]1CCC(NC(=O)C2=CC=C3NC(=O)CC3=C2)CC1
##########            Long Name:   NO_LONG_NAME
##########          FlexRecCode: 1
##########               Number:                 1544
##########   Ligand Source File: /proj/zinc22/users/x_andlu/OGG1/revisions/docking/targets/smyd3/db2gen/split_par
##########                 Rank:                    1
##########               Setnum:                   69
##########             Matchnum:                    4
##########                Cloud:                    1
##########        Electrostatic:           -28.332806
##########                 Gist:             0.000000
##########        Van der Waals:           -31.583122
##########  Ligand Polar Desolv:             8.754635
########## Ligand Apolar Desolv:            -1.158706
##########      Internal Energy:             0.000000
##########      Receptor Energy:             0.000000
########## Receptor Desolvation:             0.000000
########## Receptor Hydrophobic:             0.000000
##########         Total Energy:           -52.320000
##########        Ligand Charge:             1.000000
##########            Arbitrary:    +999.9990
##########        Ligand Energy:             0.000000

@<TRIPOS>MOLECULE
smyd3_584      none
   50    52     0     0     0
SMALL
USER_CHARGES

@<TRIPOS>ATOM
      1 C1         21.3210   -2.9099   15.3150 C.3       1 <0>        -0.1800
      2 C2         20.2029   -1.8657   15.3284 C.3       1 <0>         0.1100
      3 C3         19.2043   -2.2020   16.4377 C.3       1 <0>        -0.1700
      4 O1         19.5322   -1.8697   14.0666 O.3       1 <0>        -0.5500
      5 C4         20.8013   -0.4809   15.5835 C.3       1 <0>        -0.0400
      6 N1         19.7509    0.4251   16.0670 N.4       1 <0>        -0.3800
      7 H1         19.3639    0.0621   16.9251 H         1 <0>         0.4200
      8 C5         20.3272    1.7521   16.3144 C.3       1 <0>        -0.0000
      9 C6         19.2554    2.6776   16.8947 C.3       1 <0>        -0.1600
     10 C7         18.0995    2.7991   15.8977 C.3       1 <0>         0.1400
     11 N2         17.0361    3.6224   16.4786 N.am      1 <0>        -0.7300
     12 C8         16.2416    4.3603   15.6780 C.2       1 <0>         0.5700
     13 O2         16.4074    4.3425   14.4736 O.2       1 <0>        -0.5300
     14 C9         15.1702    5.1898   16.2633 C.ar      1 <0>        -0.1700
     15 C10        14.5921    4.8337   17.4845 C.ar      1 <0>        -0.0500
     16 C11        13.5934    5.6063   18.0291 C.ar      1 <0>        -0.1500
     17 C12        13.1487    6.7526   17.3676 C.ar      1 <0>         0.1800
     18 N3         12.1686    7.6763   17.7152 N.am      1 <0>        -0.6600
     19 C13        12.0378    8.6520   16.8011 C.2       1 <0>         0.5300
     20 O3         11.2629    9.5836   16.8479 O.2       1 <0>        -0.4800
     21 C14        13.0389    8.3696   15.7009 C.3       1 <0>        -0.1200
     22 C15        13.7322    7.1033   16.1493 C.ar      1 <0>        -0.1500
     23 C16        14.7259    6.3380   15.5991 C.ar      1 <0>         0.0000
     24 C17        17.5546    1.4015   15.5900 C.3       1 <0>        -0.1600
     25 C18        18.6892    0.5233   15.0581 C.3       1 <0>        -0.0300
     26 H2         22.0325   -2.6704   14.5248 H         1 <0>         0.0800
     27 H3         21.8326   -2.9068   16.2776 H         1 <0>         0.0900
     28 H4         20.8948   -3.8965   15.1333 H         1 <0>         0.0700
     29 H5         18.4077   -1.4580   16.4473 H         1 <0>         0.0600
     30 H6         18.7780   -3.1886   16.2560 H         1 <0>         0.1000
     31 H7         19.7159   -2.1989   17.4002 H         1 <0>         0.0900
     32 H8         20.1058   -1.6639   13.3156 H         1 <0>         0.3900
     33 H9         21.2202   -0.0897   14.6564 H         1 <0>         0.1300
     34 H10        21.5884   -0.5577   16.3338 H         1 <0>         0.1400
     35 H11        20.6966    2.1678   15.3771 H         1 <0>         0.1300
     36 H12        21.1518    1.6635   17.0217 H         1 <0>         0.1300
     37 H13        19.6849    3.6629   17.0761 H         1 <0>         0.1200
     38 H14        18.8854    2.2628   17.8323 H         1 <0>         0.0900
     39 H15        18.4581    3.2623   14.9784 H         1 <0>         0.1100
     40 H16        16.9038    3.6368   17.4395 H         1 <0>         0.4000
     41 H17        14.9307    3.9484   18.0024 H         1 <0>         0.1300
     42 H18        13.1506    5.3248   18.9731 H         1 <0>         0.1400
     43 H19        11.6393    7.6221   18.5263 H         1 <0>         0.4200
     44 H20        12.5282    8.2100   14.7512 H         1 <0>         0.1300
     45 H21        13.7544    9.1876   15.6161 H         1 <0>         0.1300
     46 H22        15.1658    6.6218   14.6545 H         1 <0>         0.1500
     47 H23        17.1492    0.9602   16.5006 H         1 <0>         0.0900
     48 H24        16.7681    1.4745   14.8389 H         1 <0>         0.1200
     49 H25        19.0938    0.9652   14.1475 H         1 <0>         0.1300
     50 H26        18.3043   -0.4725   14.8383 H         1 <0>         0.1700
@<TRIPOS>BOND
     1    1    2 1
     2    1   26 1
     3    1   27 1
     4    1   28 1
     5    2    3 1
     6    2    4 1
     7    2    5 1
     8    3   29 1
     9    3   30 1
    10    3   31 1
    11    4   32 1
    12    5    6 1
    13    5   33 1
    14    5   34 1
    15    6    7 1
    16    6   25 1
    17    6    8 1
    18    8    9 1
    19    8   35 1
    20    8   36 1
    21    9   10 1
    22    9   37 1
    23    9   38 1
    24   10   11 1
    25   10   24 1
    26   10   39 1
    27   11   12 am
    28   11   40 1
    29   12   13 2
    30   12   14 1
    31   14   23 ar
    32   14   15 ar
    33   15   16 ar
    34   15   41 1
    35   16   17 ar
    36   16   42 1
    37   17   22 ar
    38   17   18 1
    39   18   19 am
    40   18   43 1
    41   19   20 2
    42   19   21 1
    43   21   22 1
    44   21   44 1
    45   21   45 1
    46   22   23 ar
    47   23   46 1
    48   24   25 1
    49   24   47 1
    50   24   48 1
    51   25   49 1
    52   25   50 1
##########                 Name:            smyd3_591
##########          Protonation:                 none
##########               SMILES:   COCCC[NH+]1CCC(NC(=O)C2=CC=C3NC(=O)CC3=C2)CC1
##########            Long Name:   NO_LONG_NAME
##########          FlexRecCode: 1
##########               Number:                 1557
##########   Ligand Source File: /proj/zinc22/users/x_andlu/OGG1/revisions/docking/targets/smyd3/db2gen/split_par
##########                 Rank:                    1
##########               Setnum:                    8
##########             Matchnum:                    6
##########                Cloud:                    1
##########        Electrostatic:           -27.194641
##########                 Gist:             0.000000
##########        Van der Waals:           -32.904430
##########  Ligand Polar Desolv:             9.311550
########## Ligand Apolar Desolv:            -1.823622
##########      Internal Energy:             0.000000
##########      Receptor Energy:             0.000000
########## Receptor Desolvation:             0.000000
########## Receptor Hydrophobic:             0.000000
##########         Total Energy:           -52.611145
##########        Ligand Charge:             1.000000
##########            Arbitrary:    +999.9990
##########        Ligand Energy:             0.000000

@<TRIPOS>MOLECULE
smyd3_591      none
   50    52     0     0     0
SMALL
USER_CHARGES

@<TRIPOS>ATOM
      1 C1         18.1841   -1.5124   18.7777 C.3       1 <0>         0.0300
      2 O1         19.3098   -0.9142   18.1321 O.3       1 <0>        -0.3900
      3 C2         20.2536   -1.8564   17.6187 C.3       1 <0>         0.0600
      4 C3         21.1188   -1.1820   16.5521 C.3       1 <0>        -0.1500
      5 C4         20.2272   -0.6812   15.4140 C.3       1 <0>        -0.0100
      6 N1         19.2570    0.2873   15.9418 N.4       1 <0>        -0.3800
      7 H1         18.9220   -0.0303   16.8390 H         1 <0>         0.4200
      8 C5         19.9076    1.5936   16.0984 C.3       1 <0>        -0.0000
      9 C6         18.9246    2.5857   16.7236 C.3       1 <0>        -0.1600
     10 C7         17.7026    2.7283   15.8117 C.3       1 <0>         0.1400
     11 N2         16.7233    3.6182   16.4405 N.am      1 <0>        -0.7300
     12 C8         15.9033    4.3659   15.6755 C.2       1 <0>         0.5700
     13 O2         15.9763    4.3017   14.4637 O.2       1 <0>        -0.5300
     14 C9         14.9167    5.2623   16.3091 C.ar      1 <0>        -0.1800
     15 C10        14.4180    4.9726   17.5818 C.ar      1 <0>        -0.0500
     16 C11        13.4982    5.8077   18.1715 C.ar      1 <0>        -0.1500
     17 C12        13.0551    6.9516   17.5046 C.ar      1 <0>         0.1900
     18 N3         12.1455    7.9303   17.8912 N.am      1 <0>        -0.6600
     19 C13        11.9885    8.8810   16.9552 C.2       1 <0>         0.5300
     20 O3         11.2608    9.8485   17.0264 O.2       1 <0>        -0.4800
     21 C14        12.8898    8.5176   15.7943 C.3       1 <0>        -0.1200
     22 C15        13.5592    7.2356   16.2346 C.ar      1 <0>        -0.1500
     23 C16        14.4738    6.4080   15.6395 C.ar      1 <0>         0.0000
     24 C17        17.0754    1.3481   15.5953 C.3       1 <0>        -0.1600
     25 C18        18.1271    0.4018   15.0119 C.3       1 <0>        -0.0100
     26 H2         17.5152   -0.7313   19.1394 H         1 <0>         0.0500
     27 H3         17.6523   -2.1458   18.0678 H         1 <0>         0.1000
     28 H4         18.5257   -2.1162   19.6184 H         1 <0>         0.0500
     29 H5         19.7221   -2.6989   17.1761 H         1 <0>         0.0600
     30 H6         20.8888   -2.2130   18.4296 H         1 <0>         0.0600
     31 H7         21.8387   -1.9006   16.1604 H         1 <0>         0.1000
     32 H8         21.6503   -0.3396   16.9947 H         1 <0>         0.1000
     33 H9         19.6957   -1.5236   14.9713 H         1 <0>         0.1300
     34 H10        20.8435   -0.2007   14.6541 H         1 <0>         0.1300
     35 H11        20.2227    1.9614   15.1219 H         1 <0>         0.1300
     36 H12        20.7788    1.4894   16.7453 H         1 <0>         0.1400
     37 H13        19.4090    3.5554   16.8374 H         1 <0>         0.1200
     38 H14        18.6089    2.2195   17.7005 H         1 <0>         0.1000
     39 H15        18.0102    3.1447   14.8524 H         1 <0>         0.1100
     40 H16        16.6651    3.6694   17.4074 H         1 <0>         0.4100
     41 H17        14.7559    4.0898   18.1041 H         1 <0>         0.1300
     42 H18        13.1164    5.5773   19.1552 H         1 <0>         0.1400
     43 H19        11.6774    7.9267   18.7407 H         1 <0>         0.4200
     44 H20        12.3019    8.3513   14.8915 H         1 <0>         0.1300
     45 H21        13.6317    9.2985   15.6275 H         1 <0>         0.1300
     46 H22        14.8528    6.6406   14.6553 H         1 <0>         0.1500
     47 H23        16.7216    0.9556   16.5486 H         1 <0>         0.0900
     48 H24        16.2382    1.4332   14.9026 H         1 <0>         0.1200
     49 H25        18.4801    0.7952   14.0586 H         1 <0>         0.1300
     50 H26        17.6835   -0.5816   14.8568 H         1 <0>         0.1400
@<TRIPOS>BOND
     1    1    2 1
     2    1   26 1
     3    1   27 1
     4    1   28 1
     5    2    3 1
     6    3    4 1
     7    3   29 1
     8    3   30 1
     9    4    5 1
    10    4   31 1
    11    4   32 1
    12    5    6 1
    13    5   33 1
    14    5   34 1
    15    6    7 1
    16    6   25 1
    17    6    8 1
    18    8    9 1
    19    8   35 1
    20    8   36 1
    21    9   10 1
    22    9   37 1
    23    9   38 1
    24   10   11 1
    25   10   24 1
    26   10   39 1
    27   11   12 am
    28   11   40 1
    29   12   13 2
    30   12   14 1
    31   14   23 ar
    32   14   15 ar
    33   15   16 ar
    34   15   41 1
    35   16   17 ar
    36   16   42 1
    37   17   22 ar
    38   17   18 1
    39   18   19 am
    40   18   43 1
    41   19   20 2
    42   19   21 1
    43   21   22 1
    44   21   44 1
    45   21   45 1
    46   22   23 ar
    47   23   46 1
    48   24   25 1
    49   24   47 1
    50   24   48 1
    51   25   49 1
    52   25   50 1
##########                 Name:            smyd3_596
##########          Protonation:                 none
##########               SMILES:   NC(=O)CC[NH+]1CCC(NC(=O)C2=CC3=C(C=C2)NC(=O)C3)CC1
##########            Long Name:   NO_LONG_NAME
##########          FlexRecCode: 1
##########               Number:                 1574
##########   Ligand Source File: /proj/zinc22/users/x_andlu/OGG1/revisions/docking/targets/smyd3/db2gen/split_par
##########                 Rank:                    1
##########               Setnum:                   61
##########             Matchnum:                   10
##########                Cloud:                    1
##########        Electrostatic:           -30.356462
##########                 Gist:             0.000000
##########        Van der Waals:           -30.006641
##########  Ligand Polar Desolv:             7.669033
########## Ligand Apolar Desolv:            -1.336458
##########      Internal Energy:             0.000000
##########      Receptor Energy:             0.000000
########## Receptor Desolvation:             0.000000
########## Receptor Hydrophobic:             0.000000
##########         Total Energy:           -54.030529
##########        Ligand Charge:             1.000000
##########            Arbitrary:    +999.9990
##########        Ligand Energy:             0.000000

@<TRIPOS>MOLECULE
smyd3_596      none
   47    49     0     0     0
SMALL
USER_CHARGES

@<TRIPOS>ATOM
      1 N1         22.8025   -2.0765   15.2731 N.am      1 <0>        -0.8400
      2 C1         21.5718   -2.4629   15.6640 C.2       1 <0>         0.5200
      3 O1         21.2320   -3.6205   15.5404 O.2       1 <0>        -0.5300
      4 C2         20.6182   -1.4565   16.2546 C.3       1 <0>        -0.1800
      5 C3         19.7858   -0.8255   15.1366 C.3       1 <0>         0.0100
      6 N2         18.8562    0.1555   15.7124 N.4       1 <0>        -0.3800
      7 H1         18.4808   -0.2065   16.5761 H         1 <0>         0.4200
      8 C4         19.5730    1.4083   15.9792 C.3       1 <0>         0.0000
      9 C5         18.6294    2.4065   16.6536 C.3       1 <0>        -0.1600
     10 C6         17.4416    2.6835   15.7275 C.3       1 <0>         0.1400
     11 N3         16.4962    3.5795   16.3980 N.am      1 <0>        -0.7300
     12 C7         15.7388    4.4255   15.6719 C.2       1 <0>         0.5700
     13 O2         15.8401    4.4451   14.4605 O.2       1 <0>        -0.5300
     14 C8         14.7863    5.3282   16.3476 C.ar      1 <0>        -0.1800
     15 C9         14.4249    6.5422   15.7546 C.ar      1 <0>         0.0000
     16 C10        13.5412    7.3752   16.3886 C.ar      1 <0>        -0.1500
     17 C11        12.9893    7.0293   17.6223 C.ar      1 <0>         0.1900
     18 C12        13.3512    5.8166   18.2130 C.ar      1 <0>        -0.1500
     19 C13        14.2386    4.9757   17.5842 C.ar      1 <0>        -0.0500
     20 N4         12.1244    8.0272   18.0595 N.am      1 <0>        -0.6600
     21 C14        12.0442    9.0503   17.1928 C.2       1 <0>         0.5300
     22 O3         11.3686   10.0497   17.3186 O.2       1 <0>        -0.4800
     23 C15        12.9547    8.7213   16.0288 C.3       1 <0>        -0.1200
     24 C16        16.7459    1.3601   15.3961 C.3       1 <0>        -0.1600
     25 C17        17.7593    0.4006   14.7684 C.3       1 <0>        -0.0100
     26 H2         23.4164   -2.7242   14.8930 H         1 <0>         0.4100
     27 H3         23.0742   -1.1506   15.3719 H         1 <0>         0.4200
     28 H4         21.1832   -0.6795   16.7697 H         1 <0>         0.1200
     29 H5         19.9567   -1.9550   16.9631 H         1 <0>         0.1200
     30 H6         19.2210   -1.6025   14.6215 H         1 <0>         0.1400
     31 H7         20.4473   -0.3270   14.4281 H         1 <0>         0.1400
     32 H8         19.9334    1.8275   15.0398 H         1 <0>         0.1400
     33 H9         20.4197    1.2087   16.6360 H         1 <0>         0.1400
     34 H10        19.1629    3.3367   16.8492 H         1 <0>         0.1200
     35 H11        18.2685    1.9893   17.5936 H         1 <0>         0.1000
     36 H12        17.7968    3.1500   14.8087 H         1 <0>         0.1100
     37 H13        16.4153    3.5638   17.3645 H         1 <0>         0.4100
     38 H14        14.8425    6.8239   14.7992 H         1 <0>         0.1500
     39 H15        12.9316    5.5377   19.1683 H         1 <0>         0.1400
     40 H16        14.5133    4.0395   18.0473 H         1 <0>         0.1300
     41 H17        11.6346    7.9885   18.8959 H         1 <0>         0.4200
     42 H18        12.3827    8.6539   15.1033 H         1 <0>         0.1300
     43 H19        13.7422    9.4691   15.9365 H         1 <0>         0.1300
     44 H20        16.3460    0.9203   16.3097 H         1 <0>         0.0900
     45 H21        15.9332    1.5422   14.6930 H         1 <0>         0.1200
     46 H22        18.1584    0.8412   13.8547 H         1 <0>         0.1400
     47 H23        17.2669   -0.5425   14.5314 H         1 <0>         0.1400
@<TRIPOS>BOND
     1    1    2 am
     2    1   26 1
     3    1   27 1
     4    2    3 2
     5    2    4 1
     6    4    5 1
     7    4   28 1
     8    4   29 1
     9    5    6 1
    10    5   30 1
    11    5   31 1
    12    6    7 1
    13    6   25 1
    14    6    8 1
    15    8    9 1
    16    8   32 1
    17    8   33 1
    18    9   10 1
    19    9   34 1
    20    9   35 1
    21   10   11 1
    22   10   24 1
    23   10   36 1
    24   11   12 am
    25   11   37 1
    26   12   13 2
    27   12   14 1
    28   14   19 ar
    29   14   15 ar
    30   15   16 ar
    31   15   38 1
    32   16   23 1
    33   16   17 ar
    34   17   18 ar
    35   17   20 1
    36   18   19 ar
    37   18   39 1
    38   19   40 1
    39   20   21 am
    40   20   41 1
    41   21   22 2
    42   21   23 1
    43   23   42 1
    44   23   43 1
    45   24   25 1
    46   24   44 1
    47   24   45 1
    48   25   46 1
    49   25   47 1
##########                 Name:            smyd3_601
##########          Protonation:                 none
##########               SMILES:   CN(C)CC[NH+]1CCC(NC(=O)C2=CC=C3NC(=O)CC3=C2)CC1
##########            Long Name:   NO_LONG_NAME
##########          FlexRecCode: 1
##########               Number:                 1593
##########   Ligand Source File: /proj/zinc22/users/x_andlu/OGG1/revisions/docking/targets/smyd3/db2gen/split_par
##########                 Rank:                    1
##########               Setnum:                   35
##########             Matchnum:                    2
##########                Cloud:                    1
##########        Electrostatic:           -27.752348
##########                 Gist:             0.000000
##########        Van der Waals:           -32.757854
##########  Ligand Polar Desolv:             8.436320
########## Ligand Apolar Desolv:            -1.458354
##########      Internal Energy:             0.000000
##########      Receptor Energy:             0.000000
########## Receptor Desolvation:             0.000000
########## Receptor Hydrophobic:             0.000000
##########         Total Energy:           -53.532234
##########        Ligand Charge:             1.000000
##########            Arbitrary:    +999.9990
##########        Ligand Energy:             0.000000

@<TRIPOS>MOLECULE
smyd3_601      none
   51    53     0     0     0
SMALL
USER_CHARGES

@<TRIPOS>ATOM
      1 C1         22.1246   -3.1137   16.1126 C.3       1 <0>         0.0100
      2 N1         20.9878   -2.9844   15.1910 N.3       1 <0>        -0.5400
      3 C2         20.3800   -4.2935   14.9179 C.3       1 <0>         0.0200
      4 C3         19.9912   -2.0401   15.7137 C.3       1 <0>         0.0200
      5 C4         20.4488   -0.6077   15.4317 C.3       1 <0>        -0.0100
      6 N2         19.4522    0.3367   15.9543 N.4       1 <0>        -0.3800
      7 H1         19.1123    0.0051   16.8446 H         1 <0>         0.4200
      8 C5         20.0740    1.6546   16.1295 C.3       1 <0>         0.0000
      9 C6         19.0629    2.6215   16.7495 C.3       1 <0>        -0.1600
     10 C7         17.8501    2.7465   15.8229 C.3       1 <0>         0.1400
     11 N3         16.8448    3.6113   16.4457 N.am      1 <0>        -0.7300
     12 C8         16.0196    4.3482   15.6760 C.2       1 <0>         0.5700
     13 O1         16.1095    4.2953   14.4646 O.2       1 <0>        -0.5300
     14 C9         15.0068    5.2193   16.3035 C.ar      1 <0>        -0.1700
     15 C10        14.4978    4.9093   17.5673 C.ar      1 <0>        -0.0500
     16 C11        13.5536    5.7208   18.1514 C.ar      1 <0>        -0.1500
     17 C12        13.0958    6.8607   17.4877 C.ar      1 <0>         0.1900
     18 N4         12.1615    7.8176   17.8700 N.am      1 <0>        -0.6600
     19 C13        11.9972    8.7724   16.9395 C.2       1 <0>         0.5300
     20 O2         11.2489    9.7243   17.0087 O.2       1 <0>        -0.4800
     21 C14        12.9206    8.4367   15.7877 C.3       1 <0>        -0.1200
     22 C15        13.6103    7.1651   16.2267 C.ar      1 <0>        -0.1500
     23 C16        14.5493    6.3611   15.6371 C.ar      1 <0>         0.0000
     24 C17        17.2542    1.3557   15.5875 C.3       1 <0>        -0.1600
     25 C18        18.3324    0.4357   15.0106 C.3       1 <0>        -0.0100
     26 H2         22.5559   -2.1300   16.2978 H         1 <0>         0.0400
     27 H3         21.7819   -3.5434   17.0539 H         1 <0>         0.0800
     28 H4         22.8791   -3.7639   15.6697 H         1 <0>         0.0700
     29 H5         19.5411   -4.1689   14.2331 H         1 <0>         0.0800
     30 H6         21.1224   -4.9518   14.4668 H         1 <0>         0.0800
     31 H7         20.0254   -4.7314   15.8510 H         1 <0>         0.0400
     32 H8         19.8847   -2.1824   16.7890 H         1 <0>         0.0600
     33 H9         19.0322   -2.2176   15.2269 H         1 <0>         0.1000
     34 H10        20.5554   -0.4652   14.3563 H         1 <0>         0.1400
     35 H11        21.4078   -0.4301   15.9185 H         1 <0>         0.1300
     36 H12        20.3941    2.0366   15.1602 H         1 <0>         0.1300
     37 H13        20.9386    1.5630   16.7869 H         1 <0>         0.1400
     38 H14        19.5259    3.5999   16.8772 H         1 <0>         0.1200
     39 H15        18.7421    2.2411   17.7194 H         1 <0>         0.0900
     40 H16        18.1615    3.1768   14.8710 H         1 <0>         0.1100
     41 H17        16.7730    3.6535   17.4121 H         1 <0>         0.4100
     42 H18        14.8469    4.0294   18.0872 H         1 <0>         0.1300
     43 H19        13.1639    5.4747   19.1282 H         1 <0>         0.1400
     44 H20        11.6826    7.7976   18.7132 H         1 <0>         0.4200
     45 H21        12.3480    8.2658   14.8760 H         1 <0>         0.1300
     46 H22        13.6486    9.2338   15.6367 H         1 <0>         0.1300
     47 H23        14.9361    6.6093   14.6597 H         1 <0>         0.1500
     48 H24        16.8962    0.9484   16.5331 H         1 <0>         0.0900
     49 H25        16.4244    1.4293   14.8847 H         1 <0>         0.1200
     50 H26        18.6895    0.8437   14.0651 H         1 <0>         0.1400
     51 H27        17.9110   -0.5552   14.8421 H         1 <0>         0.1400
@<TRIPOS>BOND
     1    1    2 1
     2    1   26 1
     3    1   27 1
     4    1   28 1
     5    2    3 1
     6    2    4 1
     7    3   29 1
     8    3   30 1
     9    3   31 1
    10    4    5 1
    11    4   32 1
    12    4   33 1
    13    5    6 1
    14    5   34 1
    15    5   35 1
    16    6    7 1
    17    6   25 1
    18    6    8 1
    19    8    9 1
    20    8   36 1
    21    8   37 1
    22    9   10 1
    23    9   38 1
    24    9   39 1
    25   10   11 1
    26   10   24 1
    27   10   40 1
    28   11   12 am
    29   11   41 1
    30   12   13 2
    31   12   14 1
    32   14   23 ar
    33   14   15 ar
    34   15   16 ar
    35   15   42 1
    36   16   17 ar
    37   16   43 1
    38   17   22 ar
    39   17   18 1
    40   18   19 am
    41   18   44 1
    42   19   20 2
    43   19   21 1
    44   21   22 1
    45   21   45 1
    46   21   46 1
    47   22   23 ar
    48   23   47 1
    49   24   25 1
    50   24   48 1
    51   24   49 1
    52   25   50 1
    53   25   51 1
##########                 Name:            smyd3_602
##########          Protonation:                 none
##########               SMILES:   COC(=O)CN1CCC(NC(=O)C2=CC=C3NC(=O)CC3=C2)CC1
##########            Long Name:   NO_LONG_NAME
##########          FlexRecCode: 1
##########               Number:                 1597
##########   Ligand Source File: /proj/zinc22/users/x_andlu/OGG1/revisions/docking/targets/smyd3/db2gen/split_par
##########                 Rank:                    1
##########               Setnum:                   95
##########             Matchnum:                    7
##########                Cloud:                    1
##########        Electrostatic:           -20.124744
##########                 Gist:             0.000000
##########        Van der Waals:           -31.697796
##########  Ligand Polar Desolv:             7.176691
########## Ligand Apolar Desolv:            -1.440141
##########      Internal Energy:             0.000000
##########      Receptor Energy:             0.000000
########## Receptor Desolvation:             0.000000
########## Receptor Hydrophobic:             0.000000
##########         Total Energy:           -46.085991
##########        Ligand Charge:             0.000000
##########            Arbitrary:    +999.9990
##########        Ligand Energy:             0.000000

@<TRIPOS>MOLECULE
smyd3_602      none
   45    47     0     0     0
SMALL
USER_CHARGES

@<TRIPOS>ATOM
      1 C1         19.8591   -4.2581   14.8555 C.3       1 <0>         0.0400
      2 O1         20.5421   -2.9787   14.9285 O.3       1 <0>        -0.3600
      3 C2         19.8206   -1.9254   15.3429 C.2       1 <0>         0.4600
      4 O2         18.6568   -2.0677   15.6349 O.2       1 <0>        -0.4900
      5 C3         20.4620   -0.5655   15.4437 C.3       1 <0>         0.0600
      6 N1         19.4704    0.4096   15.9165 N.3       1 <0>        -0.5300
      7 C4         20.0849    1.7274   16.1225 C.3       1 <0>         0.0600
      8 C5         19.0617    2.6764   16.7506 C.3       1 <0>        -0.1200
      9 C6         17.8489    2.7973   15.8239 C.3       1 <0>         0.1400
     10 N2         16.8407    3.6587   16.4468 N.am      1 <0>        -0.7200
     11 C7         16.0135    4.3934   15.6771 C.2       1 <0>         0.5700
     12 O3         16.1040    4.3413   14.4658 O.2       1 <0>        -0.5300
     13 C8         14.9978    5.2611   16.3047 C.ar      1 <0>        -0.1600
     14 C9         14.4893    4.9489   17.5682 C.ar      1 <0>        -0.0500
     15 C10        13.5429    5.7575   18.1527 C.ar      1 <0>        -0.1500
     16 C11        13.0828    6.8971   17.4899 C.ar      1 <0>         0.1700
     17 N3         12.1464    7.8517   17.8729 N.am      1 <0>        -0.6600
     18 C12        11.9802    8.8070   16.9432 C.2       1 <0>         0.5300
     19 O4         11.2304    9.7575   17.0135 O.2       1 <0>        -0.4900
     20 C13        12.9045    8.4742   15.7913 C.3       1 <0>        -0.1200
     21 C14        13.5968    7.2037   16.2292 C.ar      1 <0>        -0.1500
     22 C15        14.5376    6.4021   15.6390 C.ar      1 <0>        -0.0000
     23 C16        17.2562    1.4058   15.5854 C.3       1 <0>        -0.1200
     24 C17        18.3322    0.4932   14.9926 C.3       1 <0>         0.0500
     25 H1         20.5545   -5.0219   14.5075 H         1 <0>         0.0600
     26 H2         19.4874   -4.5284   15.8440 H         1 <0>         0.0600
     27 H3         19.0227   -4.1842   14.1605 H         1 <0>         0.1000
     28 H4         20.8294   -0.2635   14.4629 H         1 <0>         0.0800
     29 H5         21.2940   -0.6075   16.1464 H         1 <0>         0.1200
     30 H6         20.4122    2.1293   15.1636 H         1 <0>         0.0400
     31 H7         20.9435    1.6278   16.7867 H         1 <0>         0.0900
     32 H8         19.5134    3.6587   16.8889 H         1 <0>         0.0800
     33 H9         18.7442    2.2820   17.7160 H         1 <0>         0.0800
     34 H10        18.1591    3.2290   14.8724 H         1 <0>         0.0900
     35 H11        16.7685    3.7002   17.4132 H         1 <0>         0.4000
     36 H12        14.8404    4.0694   18.0873 H         1 <0>         0.1400
     37 H13        13.1540    5.5101   19.1293 H         1 <0>         0.1400
     38 H14        11.6678    7.8301   18.7163 H         1 <0>         0.4200
     39 H15        12.3324    8.3029   14.8794 H         1 <0>         0.1300
     40 H16        13.6308    9.2730   15.6411 H         1 <0>         0.1300
     41 H17        14.9240    6.6520   14.6620 H         1 <0>         0.1400
     42 H18        16.9094    0.9909   16.5319 H         1 <0>         0.0800
     43 H19        16.4187    1.4809   14.8919 H         1 <0>         0.0700
     44 H20        18.6677    0.9009   14.0389 H         1 <0>         0.0400
     45 H21        17.9177   -0.5027   14.8360 H         1 <0>         0.0900
@<TRIPOS>BOND
     1    1    2 1
     2    1   25 1
     3    1   26 1
     4    1   27 1
     5    2    3 1
     6    3    4 2
     7    3    5 1
     8    5    6 1
     9    5   28 1
    10    5   29 1
    11    6   24 1
    12    6    7 1
    13    7    8 1
    14    7   30 1
    15    7   31 1
    16    8    9 1
    17    8   32 1
    18    8   33 1
    19    9   10 1
    20    9   23 1
    21    9   34 1
    22   10   11 am
    23   10   35 1
    24   11   12 2
    25   11   13 1
    26   13   22 ar
    27   13   14 ar
    28   14   15 ar
    29   14   36 1
    30   15   16 ar
    31   15   37 1
    32   16   21 ar
    33   16   17 1
    34   17   18 am
    35   17   38 1
    36   18   19 2
    37   18   20 1
    38   20   21 1
    39   20   39 1
    40   20   40 1
    41   21   22 ar
    42   22   41 1
    43   23   24 1
    44   23   42 1
    45   23   43 1
    46   24   44 1
    47   24   45 1
##########                 Name:            smyd3_604
##########          Protonation:                 none
##########               SMILES:   CCOC(=O)N1CCC(NC(=O)C2=CC=C3NC(=O)CC3=C2)CC1
##########            Long Name:   NO_LONG_NAME
##########          FlexRecCode: 1
##########               Number:                 1600
##########   Ligand Source File: /proj/zinc22/users/x_andlu/OGG1/revisions/docking/targets/smyd3/db2gen/split_par
##########                 Rank:                    1
##########               Setnum:                   51
##########             Matchnum:                   11
##########                Cloud:                    1
##########        Electrostatic:           -20.065874
##########                 Gist:             0.000000
##########        Van der Waals:           -32.570320
##########  Ligand Polar Desolv:             6.435792
########## Ligand Apolar Desolv:            -1.675215
##########      Internal Energy:             0.000000
##########      Receptor Energy:             0.000000
########## Receptor Desolvation:             0.000000
########## Receptor Hydrophobic:             0.000000
##########         Total Energy:           -47.875618
##########        Ligand Charge:             0.000000
##########            Arbitrary:    +999.9990
##########        Ligand Energy:             0.000000

@<TRIPOS>MOLECULE
smyd3_604      none
   45    47     0     0     0
SMALL
USER_CHARGES

@<TRIPOS>ATOM
      1 C1         21.2625   -2.9379   14.4279 C.3       1 <0>        -0.1500
      2 C2         20.1795   -3.1853   15.4798 C.3       1 <0>         0.0800
      3 O1         19.1818   -2.1330   15.4042 O.3       1 <0>        -0.3700
      4 C3         19.3852   -1.0420   16.1664 C.2       1 <0>         0.6500
      5 O2         19.9826   -1.1395   17.2200 O.2       1 <0>        -0.5700
      6 N1         18.9260    0.1586   15.7609 N.am      1 <0>        -0.6000
      7 C4         19.6236    1.3944   16.1415 C.3       1 <0>         0.1300
      8 C5         18.6184    2.3456   16.7984 C.3       1 <0>        -0.1400
      9 C6         17.4321    2.5584   15.8553 C.3       1 <0>         0.1500
     10 N2         16.4844    3.4937   16.4665 N.am      1 <0>        -0.7200
     11 C7         15.7283    4.2923   15.6873 C.2       1 <0>         0.5700
     12 O3         15.8327    4.2365   14.4773 O.2       1 <0>        -0.5300
     13 C8         14.7735    5.2344   16.3031 C.ar      1 <0>        -0.1600
     14 C9         14.2233    4.9593   17.5577 C.ar      1 <0>        -0.0500
     15 C10        13.3337    5.8373   18.1311 C.ar      1 <0>        -0.1500
     16 C11        12.9732    7.0108   17.4659 C.ar      1 <0>         0.1700
     17 N3         12.1079    8.0341   17.8385 N.am      1 <0>        -0.6600
     18 C12        12.0302    9.0017   16.9101 C.2       1 <0>         0.5300
     19 O4         11.3553   10.0074   16.9727 O.2       1 <0>        -0.4900
     20 C13        12.9432    8.6014   15.7706 C.3       1 <0>        -0.1200
     21 C14        13.5285    7.2799   16.2141 C.ar      1 <0>        -0.1500
     22 C15        14.4130    6.4094   15.6349 C.ar      1 <0>        -0.0000
     23 C16        16.7349    1.2201   15.6001 C.3       1 <0>        -0.1500
     24 C17        17.7187    0.2563   14.9293 C.3       1 <0>         0.1100
     25 H1         22.0116   -3.7278   14.4847 H         1 <0>         0.0800
     26 H2         20.8115   -2.9355   13.4356 H         1 <0>         0.0700
     27 H3         21.7363   -1.9740   14.6139 H         1 <0>         0.0700
     28 H4         20.6306   -3.1876   16.4722 H         1 <0>         0.0700
     29 H5         19.7058   -4.1491   15.2939 H         1 <0>         0.0700
     30 H6         20.0449    1.8647   15.2530 H         1 <0>         0.0800
     31 H7         20.4224    1.1634   16.8462 H         1 <0>         0.1000
     32 H8         19.1003    3.3026   16.9985 H         1 <0>         0.0900
     33 H9         18.2657    1.9131   17.7347 H         1 <0>         0.0800
     34 H10        17.7884    2.9683   14.9103 H         1 <0>         0.1000
     35 H11        16.4010    3.5382   17.4319 H         1 <0>         0.4000
     36 H12        14.4974    4.0539   18.0787 H         1 <0>         0.1300
     37 H13        12.9121    5.6182   19.1009 H         1 <0>         0.1400
     38 H14        11.6163    8.0475   18.6746 H         1 <0>         0.4200
     39 H15        12.3733    8.4773   14.8498 H         1 <0>         0.1300
     40 H16        13.7314    9.3419   15.6343 H         1 <0>         0.1300
     41 H17        14.8322    6.6312   14.6646 H         1 <0>         0.1400
     42 H18        16.4004    0.7978   16.5476 H         1 <0>         0.0700
     43 H19        15.8762    1.3760   14.9472 H         1 <0>         0.0900
     44 H20        17.9846    0.6337   13.9420 H         1 <0>         0.0800
     45 H21        17.2606   -0.7281   14.8329 H         1 <0>         0.1000
@<TRIPOS>BOND
     1    1    2 1
     2    1   25 1
     3    1   26 1
     4    1   27 1
     5    2    3 1
     6    2   28 1
     7    2   29 1
     8    3    4 1
     9    4    5 2
    10    4    6 am
    11    6   24 1
    12    6    7 1
    13    7    8 1
    14    7   30 1
    15    7   31 1
    16    8    9 1
    17    8   32 1
    18    8   33 1
    19    9   10 1
    20    9   23 1
    21    9   34 1
    22   10   11 am
    23   10   35 1
    24   11   12 2
    25   11   13 1
    26   13   22 ar
    27   13   14 ar
    28   14   15 ar
    29   14   36 1
    30   15   16 ar
    31   15   37 1
    32   16   21 ar
    33   16   17 1
    34   17   18 am
    35   17   38 1
    36   18   19 2
    37   18   20 1
    38   20   21 1
    39   20   39 1
    40   20   40 1
    41   21   22 ar
    42   22   41 1
    43   23   24 1
    44   23   42 1
    45   23   43 1
    46   24   44 1
    47   24   45 1
##########                 Name:            smyd3_605
##########          Protonation:                 none
##########               SMILES:   CP(C)(=O)C[NH+]1CCC(NC(=O)C2=CC=C3NC(=O)CC3=C2)CC1
##########            Long Name:   NO_LONG_NAME
##########          FlexRecCode: 1
##########               Number:                 1605
##########   Ligand Source File: /proj/zinc22/users/x_andlu/OGG1/revisions/docking/targets/smyd3/db2gen/split_par
##########                 Rank:                    1
##########               Setnum:                   40
##########             Matchnum:                    2
##########                Cloud:                    1
##########        Electrostatic:           -26.938808
##########                 Gist:             0.000000
##########        Van der Waals:           -32.056259
##########  Ligand Polar Desolv:             8.926435
########## Ligand Apolar Desolv:            -1.723249
##########      Internal Energy:             0.000000
##########      Receptor Energy:             0.000000
########## Receptor Desolvation:             0.000000
########## Receptor Hydrophobic:             0.000000
##########         Total Energy:           -51.791885
##########        Ligand Charge:             1.000000
##########            Arbitrary:    +999.9990
##########        Ligand Energy:             0.000000

@<TRIPOS>MOLECULE
smyd3_605      none
   49    51     0     0     0
SMALL
USER_CHARGES

@<TRIPOS>ATOM
      1 C1         19.1410   -2.2818   17.3945 C.3       1 <0>        -0.8000
      2 P1         20.6286   -1.8113   16.4515 P.3       1 <0>         2.4300
      3 C2         21.3600   -3.2971   15.6894 C.3       1 <0>        -0.7900
      4 O1         21.6141   -1.1886   17.3634 O.2       1 <0>        -0.9500
      5 C3         20.1709   -0.6222   15.1477 C.3       1 <0>        -0.6400
      6 N1         19.1798    0.3252   15.6752 N.4       1 <0>        -0.3600
      7 H1         18.5227   -0.1683   16.2606 H         1 <0>         0.4100
      8 C4         18.4617    0.9517   14.5588 C.3       1 <0>        -0.0100
      9 C5         17.3732    1.8789   15.1038 C.3       1 <0>        -0.1600
     10 C6         18.0206    2.9637   15.9693 C.3       1 <0>         0.1300
     11 N2         16.9782    3.8094   16.5558 N.am      1 <0>        -0.7300
     12 C7         16.1378    4.4956   15.7561 C.2       1 <0>         0.5700
     13 O2         16.2449    4.4125   14.5479 O.2       1 <0>        -0.5300
     14 C8         15.0875    5.3477   16.3471 C.ar      1 <0>        -0.1700
     15 C9         14.5734    5.0550   17.6130 C.ar      1 <0>        -0.0500
     16 C10        13.5983    5.8519   18.1655 C.ar      1 <0>        -0.1500
     17 C11        13.1058    6.9533   17.4625 C.ar      1 <0>         0.1900
     18 N3         12.1337    7.8867   17.8064 N.am      1 <0>        -0.6600
     19 C12        11.9441    8.8057   16.8452 C.2       1 <0>         0.5300
     20 O3         11.1622    9.7322   16.8787 O.2       1 <0>        -0.4800
     21 C13        12.8906    8.4687   15.7127 C.3       1 <0>        -0.1200
     22 C14        13.6186    7.2364   16.1992 C.ar      1 <0>        -0.1500
     23 C15        14.5953    6.4508   15.6415 C.ar      1 <0>         0.0000
     24 C16        18.8280    2.2970   17.0868 C.3       1 <0>        -0.1600
     25 C17        19.8627    1.3543   16.4684 C.3       1 <0>        -0.0400
     26 H2         18.7037   -1.3933   17.8502 H         1 <0>         0.1000
     27 H3         18.4153   -2.7404   16.7230 H         1 <0>         0.1300
     28 H4         19.4147   -2.9927   18.1740 H         1 <0>         0.1100
     29 H5         22.2494   -3.0159   15.1256 H         1 <0>         0.1200
     30 H6         21.6337   -4.0082   16.4689 H         1 <0>         0.1300
     31 H7         20.6341   -3.7558   15.0178 H         1 <0>         0.1000
     32 H8         19.7454   -1.1588   14.2998 H         1 <0>         0.1600
     33 H9         21.0583   -0.0777   14.8249 H         1 <0>         0.1800
     34 H10        19.1619    1.5295   13.9555 H         1 <0>         0.1400
     35 H11        18.0041    0.1783   13.9419 H         1 <0>         0.1300
     36 H12        16.6723    1.3021   15.7070 H         1 <0>         0.0900
     37 H13        16.8423    2.3445   14.2733 H         1 <0>         0.1200
     38 H14        18.6832    3.5732   15.3548 H         1 <0>         0.1100
     39 H15        16.8926    3.8757   17.5199 H         1 <0>         0.4100
     40 H16        14.9459    4.2022   18.1611 H         1 <0>         0.1300
     41 H17        13.2081    5.6220   19.1459 H         1 <0>         0.1400
     42 H18        11.6471    7.8750   18.6455 H         1 <0>         0.4200
     43 H19        13.5922    9.2858   15.5450 H         1 <0>         0.1300
     44 H20        12.3337    8.2489   14.8018 H         1 <0>         0.1300
     45 H21        14.9827    6.6830   14.6605 H         1 <0>         0.1500
     46 H22        18.1572    1.7287   17.7313 H         1 <0>         0.1000
     47 H23        19.3371    3.0609   17.6745 H         1 <0>         0.1300
     48 H24        20.4394    0.8781   17.2613 H         1 <0>         0.1800
     49 H25        20.5326    1.9238   15.8243 H         1 <0>         0.1400
@<TRIPOS>BOND
     1    1    2 1
     2    1   26 1
     3    1   27 1
     4    1   28 1
     5    2    3 1
     6    2    4 2
     7    2    5 1
     8    3   29 1
     9    3   30 1
    10    3   31 1
    11    5    6 1
    12    5   32 1
    13    5   33 1
    14    6    7 1
    15    6   25 1
    16    6    8 1
    17    8    9 1
    18    8   34 1
    19    8   35 1
    20    9   10 1
    21    9   36 1
    22    9   37 1
    23   10   11 1
    24   10   24 1
    25   10   38 1
    26   11   12 am
    27   11   39 1
    28   12   13 2
    29   12   14 1
    30   14   23 ar
    31   14   15 ar
    32   15   16 ar
    33   15   40 1
    34   16   17 ar
    35   16   41 1
    36   17   22 ar
    37   17   18 1
    38   18   19 am
    39   18   42 1
    40   19   20 2
    41   19   21 1
    42   21   22 1
    43   21   43 1
    44   21   44 1
    45   22   23 ar
    46   23   45 1
    47   24   25 1
    48   24   46 1
    49   24   47 1
    50   25   48 1
    51   25   49 1
##########                 Name:            smyd3_606
##########          Protonation:                 none
##########               SMILES:   CC1CN(S(C)(=O)=O)CCC1NC(=O)C1=CC=C2NC(=O)CC2=C1
##########            Long Name:   NO_LONG_NAME
##########          FlexRecCode: 1
##########               Number:                 1607
##########   Ligand Source File: /proj/zinc22/users/x_andlu/OGG1/revisions/docking/targets/smyd3/db2gen/split_par
##########                 Rank:                    1
##########               Setnum:                    3
##########             Matchnum:                    7
##########                Cloud:                    1
##########        Electrostatic:           -16.115654
##########                 Gist:             0.000000
##########        Van der Waals:           -33.159428
##########  Ligand Polar Desolv:             7.541677
########## Ligand Apolar Desolv:            -0.789758
##########      Internal Energy:             0.000000
##########      Receptor Energy:             0.000000
########## Receptor Desolvation:             0.000000
########## Receptor Hydrophobic:             0.000000
##########         Total Energy:           -42.523163
##########        Ligand Charge:             0.000000
##########            Arbitrary:    +999.9990
##########        Ligand Energy:             0.000000

@<TRIPOS>MOLECULE
smyd3_606      none
   45    47     0     0     0
SMALL
USER_CHARGES

@<TRIPOS>ATOM
      1 C1         14.9817    0.6487   15.3057 C.3       1 <0>        -0.1500
      2 C2         16.2561    0.7232   16.1492 C.3       1 <0>        -0.1200
      3 C3         17.2812   -0.2831   15.6167 C.3       1 <0>         0.1300
      4 N1         18.5412   -0.1085   16.3519 N.pl3     1 <0>        -1.0000
      5 S1         19.2678   -1.3957   17.0984 S.o2      1 <0>         2.6100
      6 C4         20.3700   -2.0886   15.8351 C.3       1 <0>        -0.6700
      7 O1         20.0217   -0.8105   18.1512 O.2       1 <0>        -0.9500
      8 O2         18.1988   -2.2910   17.3728 O.2       1 <0>        -0.9500
      9 C5         19.1445    1.2299   16.4120 C.3       1 <0>         0.1200
     10 C6         18.0985    2.2193   16.9355 C.3       1 <0>        -0.1500
     11 C7         16.8419    2.1346   16.0660 C.3       1 <0>         0.1500
     12 N2         15.8517    3.1030   16.5436 N.am      1 <0>        -0.7200
     13 C8         15.8393    4.3552   16.0454 C.2       1 <0>         0.5700
     14 O3         16.6498    4.6813   15.1997 O.2       1 <0>        -0.5300
     15 C9         14.8418    5.3309   16.5266 C.ar      1 <0>        -0.1600
     16 C10        14.3044    5.2126   17.8110 C.ar      1 <0>        -0.0500
     17 C11        13.3786    6.1246   18.2609 C.ar      1 <0>        -0.1500
     18 C12        12.9597    7.1697   17.4352 C.ar      1 <0>         0.1700
     19 N3         12.0465    8.1939   17.6629 N.am      1 <0>        -0.6600
     20 C13        11.9195    9.0109   16.6041 C.2       1 <0>         0.5300
     21 O4         11.1972    9.9819   16.5262 O.2       1 <0>        -0.4900
     22 C14        12.8483    8.4925   15.5267 C.3       1 <0>        -0.1200
     23 C15        13.4952    7.2789   16.1545 C.ar      1 <0>        -0.1500
     24 C16        14.4233    6.3775   15.6981 C.ar      1 <0>        -0.0000
     25 H1         14.5648   -0.3567   15.3652 H         1 <0>         0.0600
     26 H2         14.2538    1.3667   15.6831 H         1 <0>         0.0600
     27 H3         15.2187    0.8828   14.2679 H         1 <0>         0.0600
     28 H4         16.0203    0.4877   17.1870 H         1 <0>         0.0800
     29 H5         17.4501   -0.1054   14.5547 H         1 <0>         0.0800
     30 H6         16.9090   -1.2968   15.7649 H         1 <0>         0.1000
     31 H7         20.8954   -2.9510   16.2449 H         1 <0>         0.1300
     32 H8         19.7825   -2.3979   14.9706 H         1 <0>         0.1300
     33 H9         21.0941   -1.3329   15.5307 H         1 <0>         0.1300
     34 H10        19.4653    1.5310   15.4148 H         1 <0>         0.0800
     35 H11        20.0029    1.2163   17.0836 H         1 <0>         0.1000
     36 H12        18.5020    3.2309   16.8943 H         1 <0>         0.0800
     37 H13        17.8453    1.9702   17.9661 H         1 <0>         0.0700
     38 H14        17.1005    2.3598   15.0313 H         1 <0>         0.1000
     39 H15        15.2027    2.8417   17.2153 H         1 <0>         0.4000
     40 H16        14.6199    4.4043   18.4541 H         1 <0>         0.1300
     41 H17        12.9702    6.0292   19.2561 H         1 <0>         0.1400
     42 H18        11.5562    8.3052   18.4924 H         1 <0>         0.4200
     43 H19        13.6007    9.2410   15.2782 H         1 <0>         0.1300
     44 H20        12.2831    8.2082   14.6391 H         1 <0>         0.1300
     45 H21        14.8292    6.4753   14.7020 H         1 <0>         0.1400
@<TRIPOS>BOND
     1    1    2 1
     2    1   25 1
     3    1   26 1
     4    1   27 1
     5    2   11 1
     6    2    3 1
     7    2   28 1
     8    3    4 1
     9    3   29 1
    10    3   30 1
    11    4    5 1
    12    4    9 1
    13    5    6 1
    14    5    7 2
    15    5    8 2
    16    6   31 1
    17    6   32 1
    18    6   33 1
    19    9   10 1
    20    9   34 1
    21    9   35 1
    22   10   11 1
    23   10   36 1
    24   10   37 1
    25   11   12 1
    26   11   38 1
    27   12   13 am
    28   12   39 1
    29   13   14 2
    30   13   15 1
    31   15   24 ar
    32   15   16 ar
    33   16   17 ar
    34   16   40 1
    35   17   18 ar
    36   17   41 1
    37   18   23 ar
    38   18   19 1
    39   19   20 am
    40   19   42 1
    41   20   21 2
    42   20   22 1
    43   22   23 1
    44   22   43 1
    45   22   44 1
    46   23   24 ar
    47   24   45 1
##########                 Name:            smyd3_607
##########          Protonation:                 none
##########               SMILES:   CN(C(=O)C1=CC=C2NC(=O)CC2=C1)C1CCN(S(C)(=O)=O)CC1
##########            Long Name:   NO_LONG_NAME
##########          FlexRecCode: 1
##########               Number:                 1608
##########   Ligand Source File: /proj/zinc22/users/x_andlu/OGG1/revisions/docking/targets/smyd3/db2gen/split_par
##########                 Rank:                    1
##########               Setnum:                   11
##########             Matchnum:                    6
##########                Cloud:                    1
##########        Electrostatic:           -14.698701
##########                 Gist:             0.000000
##########        Van der Waals:           -34.571739
##########  Ligand Polar Desolv:             8.649097
########## Ligand Apolar Desolv:            -0.939113
##########      Internal Energy:             0.000000
##########      Receptor Energy:             0.000000
########## Receptor Desolvation:             0.000000
########## Receptor Hydrophobic:             0.000000
##########         Total Energy:           -41.560455
##########        Ligand Charge:             0.000000
##########            Arbitrary:    +999.9990
##########        Ligand Energy:             0.000000

@<TRIPOS>MOLECULE
smyd3_607      none
   45    47     0     0     0
SMALL
USER_CHARGES

@<TRIPOS>ATOM
      1 C1         14.7451    2.7169   15.7441 C.3       1 <0>         0.0700
      2 N1         16.0703    3.2305   16.0993 N.am      1 <0>        -0.6100
      3 C2         16.2688    4.5583   16.2185 C.2       1 <0>         0.5700
      4 O1         17.3597    5.0346   15.9705 O.2       1 <0>        -0.5300
      5 C3         15.1619    5.4341   16.6498 C.ar      1 <0>        -0.1500
      6 C4         14.5546    5.2401   17.8933 C.ar      1 <0>        -0.0300
      7 C5         13.5239    6.0568   18.2953 C.ar      1 <0>        -0.1400
      8 C6         13.0754    7.0862   17.4655 C.ar      1 <0>         0.1700
      9 N2         12.0662    8.0253   17.6518 N.am      1 <0>        -0.6600
     10 C7         11.9425    8.8576   16.6047 C.2       1 <0>         0.5300
     11 O2         11.1476    9.7674   16.4979 O.2       1 <0>        -0.4900
     12 C8         12.9815    8.4470   15.5829 C.3       1 <0>        -0.1100
     13 C9         13.6874    7.2748   16.2256 C.ar      1 <0>        -0.1500
     14 C10        14.7133    6.4647   15.8169 C.ar      1 <0>        -0.0400
     15 C11        17.1798    2.3009   16.3250 C.3       1 <0>         0.1400
     16 C12        17.4286    1.4858   15.0539 C.3       1 <0>        -0.1400
     17 C13        18.6118    0.5397   15.2822 C.3       1 <0>         0.1200
     18 N3         18.3437   -0.2725   16.4767 N.pl3     1 <0>        -1.0000
     19 S1         18.4236   -1.9252   16.4087 S.o2      1 <0>         2.6100
     20 C14        20.1483   -2.3122   16.8162 C.3       1 <0>        -0.6700
     21 O3         17.5562   -2.3610   17.4465 O.2       1 <0>        -0.9500
     22 O4         18.1513   -2.2335   15.0485 O.2       1 <0>        -0.9500
     23 C15        18.0040    0.4094   17.7330 C.3       1 <0>         0.1200
     24 C16        16.8280    1.3572   17.4772 C.3       1 <0>        -0.1500
     25 H1         14.7785    1.6286   15.6949 H         1 <0>         0.0600
     26 H2         14.0218    3.0245   16.4993 H         1 <0>         0.0800
     27 H3         14.4490    3.1156   14.7738 H         1 <0>         0.0800
     28 H4         14.8963    4.4462   18.5410 H         1 <0>         0.1400
     29 H5         13.0594    5.9015   19.2579 H         1 <0>         0.1400
     30 H6         11.5145    8.0738   18.4481 H         1 <0>         0.4200
     31 H7         12.5027    8.1416   14.6526 H         1 <0>         0.1300
     32 H8         13.6819    9.2622   15.4014 H         1 <0>         0.1300
     33 H9         15.1756    6.6228   14.8538 H         1 <0>         0.1400
     34 H10        18.0790    2.8630   16.5777 H         1 <0>         0.1100
     35 H11        16.5384    0.9041   14.8146 H         1 <0>         0.0700
     36 H12        17.6563    2.1599   14.2281 H         1 <0>         0.0800
     37 H13        19.5214    1.1213   15.4323 H         1 <0>         0.0800
     38 H14        18.7335   -0.1119   14.4169 H         1 <0>         0.1000
     39 H15        20.2932   -3.3924   16.7947 H         1 <0>         0.1300
     40 H16        20.8082   -1.8426   16.0868 H         1 <0>         0.1300
     41 H17        20.3800   -1.9344   17.8120 H         1 <0>         0.1300
     42 H18        18.8640    0.9804   18.0830 H         1 <0>         0.0800
     43 H19        17.7222   -0.3282   18.4845 H         1 <0>         0.1000
     44 H20        16.6279    1.9397   18.3765 H         1 <0>         0.0800
     45 H21        15.9434    0.7768   17.2148 H         1 <0>         0.0700
@<TRIPOS>BOND
     1    1    2 1
     2    1   25 1
     3    1   26 1
     4    1   27 1
     5    2    3 am
     6    2   15 1
     7    3    4 2
     8    3    5 1
     9    5   14 ar
    10    5    6 ar
    11    6    7 ar
    12    6   28 1
    13    7    8 ar
    14    7   29 1
    15    8   13 ar
    16    8    9 1
    17    9   10 am
    18    9   30 1
    19   10   11 2
    20   10   12 1
    21   12   13 1
    22   12   31 1
    23   12   32 1
    24   13   14 ar
    25   14   33 1
    26   15   24 1
    27   15   16 1
    28   15   34 1
    29   16   17 1
    30   16   35 1
    31   16   36 1
    32   17   18 1
    33   17   37 1
    34   17   38 1
    35   18   19 1
    36   18   23 1
    37   19   20 1
    38   19   21 2
    39   19   22 2
    40   20   39 1
    41   20   40 1
    42   20   41 1
    43   23   24 1
    44   23   42 1
    45   23   43 1
    46   24   44 1
    47   24   45 1
##########                 Name:            smyd3_610
##########          Protonation:                 none
##########               SMILES:   CC1(NC(=O)C2=CC=C3NC(=O)CC3=C2)CCN(S(N)(=O)=O)CC1
##########            Long Name:   NO_LONG_NAME
##########          FlexRecCode: 1
##########               Number:                 1615
##########   Ligand Source File: /proj/zinc22/users/x_andlu/OGG1/revisions/docking/targets/smyd3/db2gen/split_par
##########                 Rank:                    1
##########               Setnum:                   17
##########             Matchnum:                    2
##########                Cloud:                    1
##########        Electrostatic:           -19.658913
##########                 Gist:             0.000000
##########        Van der Waals:           -34.489326
##########  Ligand Polar Desolv:             7.970144
########## Ligand Apolar Desolv:             0.064187
##########      Internal Energy:             0.000000
##########      Receptor Energy:             0.000000
########## Receptor Desolvation:             0.000000
########## Receptor Hydrophobic:             0.000000
##########         Total Energy:           -46.113907
##########        Ligand Charge:             0.000000
##########            Arbitrary:    +999.9990
##########        Ligand Energy:             0.000000

@<TRIPOS>MOLECULE
smyd3_610      none
   44    46     0     0     0
SMALL
USER_CHARGES

@<TRIPOS>ATOM
      1 C1         18.6976    3.2991   15.1531 C.3       1 <0>        -0.1700
      2 C2         17.6261    2.4886   15.8854 C.3       1 <0>         0.1800
      3 N1         16.6378    3.4000   16.4675 N.am      1 <0>        -0.7200
      4 C3         15.9326    4.2274   15.6709 C.2       1 <0>         0.5700
      5 O1         16.1167    4.2176   14.4691 O.2       1 <0>        -0.5300
      6 C4         14.9369    5.1455   16.2575 C.ar      1 <0>        -0.1600
      7 C5         14.3060    4.8232   17.4617 C.ar      1 <0>        -0.0500
      8 C6         13.3780    5.6785   18.0078 C.ar      1 <0>        -0.1500
      9 C7         13.0581    6.8758   17.3643 C.ar      1 <0>         0.1700
     10 N2         12.1662    7.8833   17.7166 N.am      1 <0>        -0.6600
     11 C8         12.1462    8.8847   16.8213 C.2       1 <0>         0.5300
     12 O2         11.4651    9.8866   16.8766 O.2       1 <0>        -0.4900
     13 C9         13.1339    8.5281   15.7307 C.3       1 <0>        -0.1200
     14 C10        13.6904    7.1911   16.1644 C.ar      1 <0>        -0.1500
     15 C11        14.6176    6.3445   15.6114 C.ar      1 <0>        -0.0000
     16 C12        16.9328    1.5492   14.8959 C.3       1 <0>        -0.1400
     17 C13        15.8377    0.7643   15.6247 C.3       1 <0>         0.1200
     18 N3         16.4336    0.0865   16.7842 N.pl3     1 <0>        -1.0000
     19 S1         16.2453   -1.5450   16.9964 S.o2      1 <0>         2.7900
     20 N4         14.8691   -1.7674   17.8902 N.pl3     1 <0>        -1.2600
     21 O3         15.9808   -2.0891   15.7105 O.2       1 <0>        -0.9800
     22 O4         17.3273   -1.9711   17.8129 O.2       1 <0>        -0.9800
     23 C14        17.2003    0.8836   17.7513 C.3       1 <0>         0.1200
     24 C15        18.2802    1.6671   16.9985 C.3       1 <0>        -0.1400
     25 H1         18.2318    3.8842   14.3601 H         1 <0>         0.0600
     26 H2         19.1909    3.9690   15.8572 H         1 <0>         0.0700
     27 H3         19.4333    2.6213   14.7203 H         1 <0>         0.0800
     28 H4         16.4909    3.4077   17.4262 H         1 <0>         0.4000
     29 H5         14.5483    3.8992   17.9658 H         1 <0>         0.1300
     30 H6         12.8944    5.4232   18.9392 H         1 <0>         0.1300
     31 H7         11.6204    7.8649   18.5182 H         1 <0>         0.4200
     32 H8         12.6264    8.4373   14.7703 H         1 <0>         0.1300
     33 H9         13.9266    9.2741   15.6741 H         1 <0>         0.1300
     34 H10        15.1028    6.6051   14.6823 H         1 <0>         0.1500
     35 H11        16.4872    2.1333   14.0907 H         1 <0>         0.1000
     36 H12        17.6632    0.8546   14.4807 H         1 <0>         0.0800
     37 H13        15.4079    0.0241   14.9499 H         1 <0>         0.1000
     38 H14        15.0600    1.4495   15.9621 H         1 <0>         0.0700
     39 H15        14.0135   -1.8721   17.4454 H         1 <0>         0.4100
     40 H16        14.9185   -1.7928   18.8586 H         1 <0>         0.4200
     41 H17        17.6695    0.2221   18.4796 H         1 <0>         0.1000
     42 H18        16.5337    1.5785   18.2620 H         1 <0>         0.0700
     43 H19        18.9980    0.9715   16.5637 H         1 <0>         0.0900
     44 H20        18.7940    2.3352   17.6898 H         1 <0>         0.0900
@<TRIPOS>BOND
     1    1    2 1
     2    1   25 1
     3    1   26 1
     4    1   27 1
     5    2   24 1
     6    2    3 1
     7    2   16 1
     8    3    4 am
     9    3   28 1
    10    4    5 2
    11    4    6 1
    12    6   15 ar
    13    6    7 ar
    14    7    8 ar
    15    7   29 1
    16    8    9 ar
    17    8   30 1
    18    9   14 ar
    19    9   10 1
    20   10   11 am
    21   10   31 1
    22   11   12 2
    23   11   13 1
    24   13   14 1
    25   13   32 1
    26   13   33 1
    27   14   15 ar
    28   15   34 1
    29   16   17 1
    30   16   35 1
    31   16   36 1
    32   17   18 1
    33   17   37 1
    34   17   38 1
    35   18   19 1
    36   18   23 1
    37   19   20 1
    38   19   21 2
    39   19   22 2
    40   20   39 1
    41   20   40 1
    42   23   24 1
    43   23   41 1
    44   23   42 1
    45   24   43 1
    46   24   44 1
##########                 Name:            smyd3_611
##########          Protonation:                 none
##########               SMILES:   CCS(=O)(=O)N1CCC(NC(=O)C2=CC=C3NC(=O)CC3=C2)CC1
##########            Long Name:   NO_LONG_NAME
##########          FlexRecCode: 1
##########               Number:                 1617
##########   Ligand Source File: /proj/zinc22/users/x_andlu/OGG1/revisions/docking/targets/smyd3/db2gen/split_par
##########                 Rank:                    1
##########               Setnum:                    3
##########             Matchnum:                    1
##########                Cloud:                    1
##########        Electrostatic:           -21.132893
##########                 Gist:             0.000000
##########        Van der Waals:           -33.021339
##########  Ligand Polar Desolv:             7.936039
########## Ligand Apolar Desolv:            -0.797583
##########      Internal Energy:             0.000000
##########      Receptor Energy:             0.000000
########## Receptor Desolvation:             0.000000
########## Receptor Hydrophobic:             0.000000
##########         Total Energy:           -47.015778
##########        Ligand Charge:             0.000000
##########            Arbitrary:    +999.9990
##########        Ligand Energy:             0.000000

@<TRIPOS>MOLECULE
smyd3_611      none
   45    47     0     0     0
SMALL
USER_CHARGES

@<TRIPOS>ATOM
      1 C1         21.8729   -2.7809   15.3302 C.3       1 <0>        -0.1500
      2 C2         21.0596   -1.5603   14.8943 C.3       1 <0>        -0.6300
      3 S1         19.9156   -1.0907   16.2214 S.o2      1 <0>         2.6100
      4 O1         20.6313   -0.7688   17.4061 O.2       1 <0>        -0.9500
      5 O2         18.8020   -1.9727   16.2551 O.2       1 <0>        -0.9500
      6 N1         19.2772    0.3542   15.7245 N.pl3     1 <0>        -1.0000
      7 C3         19.9235    1.6227   16.0876 C.3       1 <0>         0.1200
      8 C4         18.8865    2.5311   16.7555 C.3       1 <0>        -0.1400
      9 C5         17.6771    2.6842   15.8304 C.3       1 <0>         0.1500
     10 N2         16.6975    3.5791   16.4517 N.am      1 <0>        -0.7300
     11 C6         15.8937    4.3378   15.6806 C.2       1 <0>         0.5700
     12 O3         15.9815    4.2797   14.4693 O.2       1 <0>        -0.5300
     13 C7         14.9067    5.2391   16.3066 C.ar      1 <0>        -0.1600
     14 C8         14.3893    4.9467   17.5712 C.ar      1 <0>        -0.0500
     15 C9         13.4697    5.7867   18.1542 C.ar      1 <0>        -0.1500
     16 C10        13.0458    6.9386   17.4887 C.ar      1 <0>         0.1700
     17 N3         12.1408    7.9237   17.8698 N.am      1 <0>        -0.6600
     18 C11        12.0045    8.8814   16.9378 C.2       1 <0>         0.5300
     19 O4         11.2855    9.8556   17.0060 O.2       1 <0>        -0.4900
     20 C12        12.9168    8.5163   15.7861 C.3       1 <0>        -0.1200
     21 C13        13.5685    7.2254   16.2269 C.ar      1 <0>        -0.1500
     22 C14        14.4827    6.3926   15.6382 C.ar      1 <0>        -0.0000
     23 C15        17.0377    1.3142   15.5932 C.3       1 <0>        -0.1500
     24 C16        18.0537    0.3921   14.9117 C.3       1 <0>         0.1200
     25 H1         22.5603   -3.0629   14.5327 H         1 <0>         0.0700
     26 H2         22.4393   -2.5378   16.2292 H         1 <0>         0.0700
     27 H3         21.1983   -3.6112   15.5391 H         1 <0>         0.0800
     28 H4         20.4931   -1.8033   13.9953 H         1 <0>         0.1300
     29 H5         21.7343   -0.7301   14.6853 H         1 <0>         0.1300
     30 H6         20.3090    2.1065   15.1901 H         1 <0>         0.0800
     31 H7         20.7430    1.4324   16.7808 H         1 <0>         0.1000
     32 H8         19.3274    3.5102   16.9430 H         1 <0>         0.0900
     33 H9         18.5687    2.0879   17.6993 H         1 <0>         0.0700
     34 H10        17.9995    3.1044   14.8777 H         1 <0>         0.1000
     35 H11        16.6274    3.6253   17.4180 H         1 <0>         0.4000
     36 H12        14.7125    4.0578   18.0924 H         1 <0>         0.1300
     37 H13        13.0738    5.5543   19.1317 H         1 <0>         0.1400
     38 H14        11.6622    7.9196   18.7136 H         1 <0>         0.4200
     39 H15        12.3389    8.3610   14.8750 H         1 <0>         0.1300
     40 H16        13.6682    9.2910   15.6333 H         1 <0>         0.1300
     41 H17        14.8762    6.6275   14.6602 H         1 <0>         0.1400
     42 H18        16.7376    0.8826   16.5481 H         1 <0>         0.0700
     43 H19        16.1627    1.4269   14.9532 H         1 <0>         0.0800
     44 H20        18.2867    0.7755   13.9184 H         1 <0>         0.0800
     45 H21        17.6395   -0.6127   14.8278 H         1 <0>         0.1000
@<TRIPOS>BOND
     1    1    2 1
     2    1   25 1
     3    1   26 1
     4    1   27 1
     5    2    3 1
     6    2   28 1
     7    2   29 1
     8    3    4 2
     9    3    5 2
    10    3    6 1
    11    6   24 1
    12    6    7 1
    13    7    8 1
    14    7   30 1
    15    7   31 1
    16    8    9 1
    17    8   32 1
    18    8   33 1
    19    9   10 1
    20    9   23 1
    21    9   34 1
    22   10   11 am
    23   10   35 1
    24   11   12 2
    25   11   13 1
    26   13   22 ar
    27   13   14 ar
    28   14   15 ar
    29   14   36 1
    30   15   16 ar
    31   15   37 1
    32   16   21 ar
    33   16   17 1
    34   17   18 am
    35   17   38 1
    36   18   19 2
    37   18   20 1
    38   20   21 1
    39   20   39 1
    40   20   40 1
    41   21   22 ar
    42   22   41 1
    43   23   24 1
    44   23   42 1
    45   23   43 1
    46   24   44 1
    47   24   45 1
##########                 Name:            smyd3_612
##########          Protonation:                 none
##########               SMILES:   CNS(=O)(=O)N1CCC(NC(=O)C2=CC=C3NC(=O)CC3=C2)CC1
##########            Long Name:   NO_LONG_NAME
##########          FlexRecCode: 1
##########               Number:                 1619
##########   Ligand Source File: /proj/zinc22/users/x_andlu/OGG1/revisions/docking/targets/smyd3/db2gen/split_par
##########                 Rank:                    1
##########               Setnum:                   29
##########             Matchnum:                    3
##########                Cloud:                    1
##########        Electrostatic:           -21.045885
##########                 Gist:             0.000000
##########        Van der Waals:           -33.386547
##########  Ligand Polar Desolv:             7.822074
########## Ligand Apolar Desolv:            -0.173676
##########      Internal Energy:             0.000000
##########      Receptor Energy:             0.000000
########## Receptor Desolvation:             0.000000
########## Receptor Hydrophobic:             0.000000
##########         Total Energy:           -46.784035
##########        Ligand Charge:             0.000000
##########            Arbitrary:    +999.9990
##########        Ligand Energy:             0.000000

@<TRIPOS>MOLECULE
smyd3_612      none
   44    46     0     0     0
SMALL
USER_CHARGES

@<TRIPOS>ATOM
      1 C1         20.9656   -1.7827   14.6865 C.3       1 <0>         0.0800
      2 N1         20.2559   -2.0671   15.9362 N.pl3     1 <0>        -1.1300
      3 S1         18.6523   -1.6813   16.0840 S.o2      1 <0>         2.7900
      4 O1         18.3014   -1.9350   17.4375 O.2       1 <0>        -0.9700
      5 O2         17.9904   -2.2882   14.9828 O.2       1 <0>        -0.9700
      6 N2         18.5195   -0.0451   15.8655 N.pl3     1 <0>        -1.0100
      7 C2         19.2214    0.8886   16.7567 C.3       1 <0>         0.1300
      8 C3         18.2063    1.8861   17.3237 C.3       1 <0>        -0.1400
      9 C4         17.4597    2.5595   16.1701 C.3       1 <0>         0.1500
     10 N3         16.5113    3.5383   16.7076 N.am      1 <0>        -0.7300
     11 C5         15.7385    4.2580   15.8703 C.2       1 <0>         0.5700
     12 O3         15.8283    4.0951   14.6688 O.2       1 <0>        -0.5300
     13 C6         14.7829    5.2439   16.4120 C.ar      1 <0>        -0.1600
     14 C7         14.2508    5.0777   17.6933 C.ar      1 <0>        -0.0500
     15 C8         13.3605    5.9964   18.1977 C.ar      1 <0>        -0.1500
     16 C9         12.9813    7.1029   17.4352 C.ar      1 <0>         0.1700
     17 N4         12.1116    8.1486   17.7264 N.am      1 <0>        -0.6600
     18 C10        12.0137    9.0288   16.7163 C.2       1 <0>         0.5300
     19 O4         11.3306   10.0307   16.6979 O.2       1 <0>        -0.4900
     20 C11        12.9161    8.5354   15.6053 C.3       1 <0>        -0.1200
     21 C12        13.5186    7.2635   16.1572 C.ar      1 <0>        -0.1500
     22 C13        14.4037    6.3516   15.6465 C.ar      1 <0>        -0.0000
     23 C14        16.7000    1.5020   15.3659 C.3       1 <0>        -0.1500
     24 C15        17.6980    0.5004   14.7762 C.3       1 <0>         0.1200
     25 H1         22.0033   -2.1038   14.7768 H         1 <0>         0.0700
     26 H2         20.4887   -2.3207   13.8673 H         1 <0>         0.0800
     27 H3         20.9328   -0.7119   14.4858 H         1 <0>         0.0600
     28 H4         20.7253   -2.4814   16.6771 H         1 <0>         0.4200
     29 H5         19.9861    1.4249   16.1950 H         1 <0>         0.0800
     30 H6         19.6872    0.3372   17.5734 H         1 <0>         0.1000
     31 H7         18.7282    2.6424   17.9101 H         1 <0>         0.0900
     32 H8         17.4947    1.3592   17.9594 H         1 <0>         0.0700
     33 H9         18.1745    3.0652   15.5210 H         1 <0>         0.1000
     34 H10        16.4396    3.6681   17.6662 H         1 <0>         0.4000
     35 H11        14.5394    4.2247   18.2894 H         1 <0>         0.1300
     36 H12        12.9530    5.8616   19.1887 H         1 <0>         0.1400
     37 H13        11.6303    8.2329   18.5643 H         1 <0>         0.4200
     38 H14        12.3360    8.3251   14.7068 H         1 <0>         0.1300
     39 H15        13.6958    9.2669   15.3930 H         1 <0>         0.1300
     40 H16        14.8089    6.4891   14.6548 H         1 <0>         0.1400
     41 H17        16.0028    0.9789   16.0200 H         1 <0>         0.0700
     42 H18        16.1497    1.9849   14.5585 H         1 <0>         0.0800
     43 H19        18.3386    1.0050   14.0531 H         1 <0>         0.0800
     44 H20        17.1589   -0.3093   14.2844 H         1 <0>         0.0900
@<TRIPOS>BOND
     1    1    2 1
     2    1   25 1
     3    1   26 1
     4    1   27 1
     5    2    3 1
     6    2   28 1
     7    3    4 2
     8    3    5 2
     9    3    6 1
    10    6   24 1
    11    6    7 1
    12    7    8 1
    13    7   29 1
    14    7   30 1
    15    8    9 1
    16    8   31 1
    17    8   32 1
    18    9   10 1
    19    9   23 1
    20    9   33 1
    21   10   11 am
    22   10   34 1
    23   11   12 2
    24   11   13 1
    25   13   22 ar
    26   13   14 ar
    27   14   15 ar
    28   14   35 1
    29   15   16 ar
    30   15   36 1
    31   16   21 ar
    32   16   17 1
    33   17   18 am
    34   17   37 1
    35   18   19 2
    36   18   20 1
    37   20   21 1
    38   20   38 1
    39   20   39 1
    40   21   22 ar
    41   22   40 1
    42   23   24 1
    43   23   41 1
    44   23   42 1
    45   24   43 1
    46   24   44 1
##########                 Name:            smyd3_614
##########          Protonation:                 none
##########               SMILES:   O=C1CC2=C(C=CC(C(=O)NC3CCN(C4=NC=CS4)CC3)=C2)N1
##########            Long Name:   NO_LONG_NAME
##########          FlexRecCode: 1
##########               Number:                 1622
##########   Ligand Source File: /proj/zinc22/users/x_andlu/OGG1/revisions/docking/targets/smyd3/db2gen/split_par
##########                 Rank:                    1
##########               Setnum:                   22
##########             Matchnum:                   18
##########                Cloud:                    1
##########        Electrostatic:           -17.399656
##########                 Gist:             0.000000
##########        Van der Waals:           -34.333168
##########  Ligand Polar Desolv:             6.691871
########## Ligand Apolar Desolv:            -1.628103
##########      Internal Energy:             0.000000
##########      Receptor Energy:             0.000000
########## Receptor Desolvation:             0.000000
########## Receptor Hydrophobic:             0.000000
##########         Total Energy:           -46.669056
##########        Ligand Charge:             0.000000
##########            Arbitrary:    +999.9990
##########        Ligand Energy:             0.000000

@<TRIPOS>MOLECULE
smyd3_614      none
   42    45     0     0     0
SMALL
USER_CHARGES

@<TRIPOS>ATOM
      1 O1         11.2931   10.0008   16.6675 O.2       1 <0>        -0.4900
      2 C1         11.9823    9.0033   16.6966 C.2       1 <0>         0.5300
      3 C2         12.8937    8.5078   15.5940 C.3       1 <0>        -0.1200
      4 C3         13.4981    7.2431   16.1601 C.ar      1 <0>        -0.1500
      5 C4         12.9583    7.0887   17.4339 C.ar      1 <0>         0.1700
      6 C5         13.3410    5.9898   18.2065 C.ar      1 <0>        -0.1500
      7 C6         14.2353    5.0708   17.7113 C.ar      1 <0>        -0.0500
      8 C7         14.7777    5.2344   16.4335 C.ar      1 <0>        -0.1600
      9 C8         15.7420    4.2506   15.9037 C.2       1 <0>         0.5700
     10 O2         15.8391    4.0801   14.7037 O.2       1 <0>        -0.5300
     11 N1         16.5146    3.5411   16.7499 N.am      1 <0>        -0.7200
     12 C9         17.4716    2.5646   16.2239 C.3       1 <0>         0.1400
     13 C10        18.2142    1.8989   17.3858 C.3       1 <0>        -0.1200
     14 C11        19.1681    0.8372   16.8337 C.3       1 <0>         0.0500
     15 N2         18.4039   -0.1647   16.0795 N.pl3     1 <0>        -0.4400
     16 C12        19.2190   -1.2106   15.6759 C.2       1 <0>         0.2300
     17 N3         18.8233   -2.2401   14.9937 N.2       1 <0>        -0.5000
     18 C13        19.7379   -3.1453   14.6942 C.2       1 <0>         0.0600
     19 C14        20.9617   -2.8671   15.1443 C.2       1 <0>        -0.2700
     20 S1         20.8923   -1.3316   16.0049 S.3       1 <0>         0.0900
     21 C15        17.7203    0.4433   14.9308 C.3       1 <0>         0.0700
     22 C16        16.7231    1.4932   15.4261 C.3       1 <0>        -0.1300
     23 C17        14.3957    6.3342   15.6586 C.ar      1 <0>        -0.0000
     24 N4         12.0804    8.1308   17.7132 N.am      1 <0>        -0.6600
     25 H1         13.6715    9.2415   15.3824 H         1 <0>         0.1300
     26 H2         12.3198    8.2875   14.6939 H         1 <0>         0.1300
     27 H3         12.9290    5.8593   19.1962 H         1 <0>         0.1400
     28 H4         14.5231    4.2215   18.3132 H         1 <0>         0.1400
     29 H5         16.4372    3.6772   17.7072 H         1 <0>         0.4000
     30 H6         18.1877    3.0682   15.5747 H         1 <0>         0.0900
     31 H7         17.4946    1.4285   18.0557 H         1 <0>         0.0900
     32 H8         18.7835    2.6508   17.9322 H         1 <0>         0.0900
     33 H9         19.6880    0.3513   17.6593 H         1 <0>         0.1000
     34 H10        19.8960    1.3104   16.1746 H         1 <0>         0.0600
     35 H11        19.5116   -4.0405   14.1340 H         1 <0>         0.1800
     36 H12        21.8421   -3.4772   15.0058 H         1 <0>         0.1800
     37 H13        18.4549    0.9183   14.2807 H         1 <0>         0.0500
     38 H14        17.1886   -0.3287   14.3745 H         1 <0>         0.1000
     39 H15        15.9801    1.0163   16.0653 H         1 <0>         0.0800
     40 H16        16.2271    1.9552   14.5724 H         1 <0>         0.0800
     41 H17        14.8055    6.4675   14.6682 H         1 <0>         0.1400
     42 H18        11.5940    8.2176   18.5479 H         1 <0>         0.4200
@<TRIPOS>BOND
     1    1    2 2
     2    2   24 am
     3    2    3 1
     4    3    4 1
     5    3   25 1
     6    3   26 1
     7    4   23 ar
     8    4    5 ar
     9    5    6 ar
    10    5   24 1
    11    6    7 ar
    12    6   27 1
    13    7    8 ar
    14    7   28 1
    15    8    9 1
    16    8   23 ar
    17    9   10 2
    18    9   11 am
    19   11   12 1
    20   11   29 1
    21   12   22 1
    22   12   13 1
    23   12   30 1
    24   13   14 1
    25   13   31 1
    26   13   32 1
    27   14   15 1
    28   14   33 1
    29   14   34 1
    30   15   16 1
    31   15   21 1
    32   16   20 1
    33   16   17 2
    34   17   18 1
    35   18   19 2
    36   18   35 1
    37   19   20 1
    38   19   36 1
    39   21   22 1
    40   21   37 1
    41   21   38 1
    42   22   39 1
    43   22   40 1
    44   23   41 1
    45   24   42 1
##########                 Name:            smyd3_615
##########          Protonation:                 none
##########               SMILES:   O=C1CC2=C(C=CC(C(=O)NC3CCN(C4=NN=CS4)CC3)=C2)N1
##########            Long Name:   NO_LONG_NAME
##########          FlexRecCode: 1
##########               Number:                 1625
##########   Ligand Source File: /proj/zinc22/users/x_andlu/OGG1/revisions/docking/targets/smyd3/db2gen/split_par
##########                 Rank:                    1
##########               Setnum:                   22
##########             Matchnum:                    9
##########                Cloud:                    1
##########        Electrostatic:           -15.803678
##########                 Gist:             0.000000
##########        Van der Waals:           -35.030407
##########  Ligand Polar Desolv:             7.075690
########## Ligand Apolar Desolv:            -1.214940
##########      Internal Energy:             0.000000
##########      Receptor Energy:             0.000000
########## Receptor Desolvation:             0.000000
########## Receptor Hydrophobic:             0.000000
##########         Total Energy:           -44.973331
##########        Ligand Charge:             0.000000
##########            Arbitrary:    +999.9990
##########        Ligand Energy:             0.000000

@<TRIPOS>MOLECULE
smyd3_615      none
   41    44     0     0     0
SMALL
USER_CHARGES

@<TRIPOS>ATOM
      1 O1         11.3679   10.0557   16.6245 O.2       1 <0>        -0.4900
      2 C1         12.0355    9.0438   16.6604 C.2       1 <0>         0.5300
      3 C2         12.9313    8.5181   15.5591 C.3       1 <0>        -0.1200
      4 C3         13.5106    7.2459   16.1350 C.ar      1 <0>        -0.1500
      5 C4         12.9728    7.1155   17.4123 C.ar      1 <0>         0.1700
      6 C5         13.3347    6.0160   18.1940 C.ar      1 <0>        -0.1500
      7 C6         14.2070    5.0731   17.7041 C.ar      1 <0>        -0.0500
      8 C7         14.7474    5.2127   16.4228 C.ar      1 <0>        -0.1600
      9 C8         15.6880    4.2032   15.8987 C.2       1 <0>         0.5700
     10 O2         15.7766    4.0192   14.7000 O.2       1 <0>        -0.5300
     11 N1         16.4486    3.4852   16.7487 N.am      1 <0>        -0.7200
     12 C9         17.3821    2.4832   16.2285 C.3       1 <0>         0.1400
     13 C10        18.1148    1.8126   17.3938 C.3       1 <0>        -0.1300
     14 C11        19.0433    0.7254   16.8481 C.3       1 <0>         0.0700
     15 N2         18.2547   -0.2667   16.1065 N.pl3     1 <0>        -0.4400
     16 C12        19.0459   -1.3346   15.7095 C.2       1 <0>         0.2200
     17 N3         18.6493   -2.3765   15.0363 N.2       1 <0>        -0.3100
     18 N4         19.5105   -3.2541   14.7561 N.2       1 <0>        -0.2400
     19 C13        20.7230   -3.0660   15.1645 C.2       1 <0>        -0.0100
     20 S1         20.7701   -1.5300   16.0323 S.3       1 <0>         0.0700
     21 C14        17.5797    0.3449   14.9547 C.3       1 <0>         0.0600
     22 C15        16.6074    1.4208   15.4437 C.3       1 <0>        -0.1300
     23 C16        14.3861    6.3131   15.6388 C.ar      1 <0>        -0.0000
     24 N5         12.1188    8.1790   17.6850 N.am      1 <0>        -0.6600
     25 H1         13.7240    9.2327   15.3374 H         1 <0>         0.1300
     26 H2         12.3492    8.3016   14.6634 H         1 <0>         0.1300
     27 H3         12.9241    5.9040   19.1866 H         1 <0>         0.1400
     28 H4         14.4787    4.2236   18.3132 H         1 <0>         0.1400
     29 H5         16.3779    3.6320   17.7049 H         1 <0>         0.4000
     30 H6         18.1065    2.9651   15.5717 H         1 <0>         0.0900
     31 H7         17.3878    1.3642   18.0710 H         1 <0>         0.0800
     32 H8         18.7025    2.5571   17.9309 H         1 <0>         0.0900
     33 H9         19.7786    1.1765   16.1820 H         1 <0>         0.0600
     34 H10        19.5558    0.2363   17.6765 H         1 <0>         0.1000
     35 H11        21.5587   -3.7309   15.0029 H         1 <0>         0.2200
     36 H12        18.3219    0.7977   14.2972 H         1 <0>         0.0600
     37 H13        17.0293   -0.4205   14.4077 H         1 <0>         0.0900
     38 H14        16.1182    1.8853   14.5876 H         1 <0>         0.0900
     39 H15        15.8569    0.9662   16.0902 H         1 <0>         0.0800
     40 H16        14.7947    6.4280   14.6456 H         1 <0>         0.1400
     41 H17        11.6379    8.2844   18.5207 H         1 <0>         0.4200
@<TRIPOS>BOND
     1    1    2 2
     2    2   24 am
     3    2    3 1
     4    3    4 1
     5    3   25 1
     6    3   26 1
     7    4   23 ar
     8    4    5 ar
     9    5    6 ar
    10    5   24 1
    11    6    7 ar
    12    6   27 1
    13    7    8 ar
    14    7   28 1
    15    8    9 1
    16    8   23 ar
    17    9   10 2
    18    9   11 am
    19   11   12 1
    20   11   29 1
    21   12   22 1
    22   12   13 1
    23   12   30 1
    24   13   14 1
    25   13   31 1
    26   13   32 1
    27   14   15 1
    28   14   33 1
    29   14   34 1
    30   15   16 1
    31   15   21 1
    32   16   20 1
    33   16   17 2
    34   17   18 1
    35   18   19 2
    36   19   20 1
    37   19   35 1
    38   21   22 1
    39   21   36 1
    40   21   37 1
    41   22   38 1
    42   22   39 1
    43   23   40 1
    44   24   41 1
##########                 Name:            smyd3_616
##########          Protonation:                 none
##########               SMILES:   O=C1CC2=C(C=CC(C(=O)NC3CCN(C4=CN=CS4)CC3)=C2)N1
##########            Long Name:   NO_LONG_NAME
##########          FlexRecCode: 1
##########               Number:                 1628
##########   Ligand Source File: /proj/zinc22/users/x_andlu/OGG1/revisions/docking/targets/smyd3/db2gen/split_par
##########                 Rank:                    1
##########               Setnum:                   25
##########             Matchnum:                   11
##########                Cloud:                    1
##########        Electrostatic:           -16.240936
##########                 Gist:             0.000000
##########        Van der Waals:           -33.915184
##########  Ligand Polar Desolv:             6.202971
########## Ligand Apolar Desolv:            -1.475427
##########      Internal Energy:             0.000000
##########      Receptor Energy:             0.000000
########## Receptor Desolvation:             0.000000
########## Receptor Hydrophobic:             0.000000
##########         Total Energy:           -45.428574
##########        Ligand Charge:             0.000000
##########            Arbitrary:    +999.9990
##########        Ligand Energy:             0.000000

@<TRIPOS>MOLECULE
smyd3_616      none
   42    45     0     0     0
SMALL
USER_CHARGES

@<TRIPOS>ATOM
      1 O1         11.2763    9.6792   16.7817 O.2       1 <0>        -0.4900
      2 C1         12.0455    8.7417   16.7603 C.2       1 <0>         0.5300
      3 C2         13.0389    8.4185   15.6645 C.3       1 <0>        -0.1200
      4 C3         13.7270    7.1628   16.1494 C.ar      1 <0>        -0.1500
      5 C4         13.1482    6.8545   17.3808 C.ar      1 <0>         0.1700
      6 C5         13.5898    5.7266   18.0762 C.ar      1 <0>        -0.1500
      7 C6         14.5806    4.9313   17.5513 C.ar      1 <0>        -0.0500
      8 C7         15.1544    5.2452   16.3161 C.ar      1 <0>        -0.1600
      9 C8         16.2183    4.3916   15.7522 C.2       1 <0>         0.5700
     10 O2         16.3780    4.3347   14.5483 O.2       1 <0>        -0.5300
     11 N1         17.0128    3.6751   16.5721 N.am      1 <0>        -0.7200
     12 C9         18.0689    2.8278   16.0124 C.3       1 <0>         0.1400
     13 C10        17.4456    1.7733   15.0938 C.3       1 <0>        -0.1300
     14 C11        18.5465    0.8537   14.5604 C.3       1 <0>         0.0600
     15 N2         19.2321    0.2052   15.6854 N.pl3     1 <0>        -0.4400
     16 C12        20.1546   -0.7402   15.2317 C.2       1 <0>        -0.0000
     17 C13        21.4764   -0.7269   15.4646 C.2       1 <0>        -0.0100
     18 N3         22.1564   -1.7248   14.9365 N.2       1 <0>        -0.4400
     19 C14        21.4920   -2.6005   14.2592 C.2       1 <0>         0.0400
     20 S1         19.7856   -2.1634   14.2594 S.3       1 <0>         0.0400
     21 C15        19.8785    1.1958   16.5557 C.3       1 <0>         0.0500
     22 C16        18.8173    2.1254   17.1486 C.3       1 <0>        -0.1200
     23 C17        14.7134    6.3743   15.6183 C.ar      1 <0>        -0.0000
     24 N4         12.1754    7.7947   17.7042 N.am      1 <0>        -0.6600
     25 H1         12.5222    8.2320   14.7231 H         1 <0>         0.1300
     26 H2         13.7588    9.2290   15.5501 H         1 <0>         0.1300
     27 H3         13.1503    5.4778   19.0308 H         1 <0>         0.1400
     28 H4         14.9167    4.0608   18.0951 H         1 <0>         0.1300
     29 H5         16.8854    3.7205   17.5325 H         1 <0>         0.4000
     30 H6         18.7655    3.4428   15.4426 H         1 <0>         0.0900
     31 H7         16.7200    1.1846   15.6551 H         1 <0>         0.0800
     32 H8         16.9474    2.2665   14.2591 H         1 <0>         0.0800
     33 H9         19.2644    1.4409   13.9875 H         1 <0>         0.0500
     34 H10        18.1044    0.0929   13.9172 H         1 <0>         0.0900
     35 H11        21.9512    0.0499   16.0457 H         1 <0>         0.1700
     36 H12        21.9152   -3.4667   13.7725 H         1 <0>         0.2000
     37 H13        20.5899    1.7813   15.9735 H         1 <0>         0.0600
     38 H14        20.4034    0.6831   17.3618 H         1 <0>         0.0900
     39 H15        19.2990    2.8702   17.7822 H         1 <0>         0.0900
     40 H16        18.1132    1.5423   17.7423 H         1 <0>         0.0800
     41 H17        15.1503    6.6255   14.6631 H         1 <0>         0.1400
     42 H18        11.6504    7.7695   18.5194 H         1 <0>         0.4200
@<TRIPOS>BOND
     1    1    2 2
     2    2   24 am
     3    2    3 1
     4    3    4 1
     5    3   25 1
     6    3   26 1
     7    4   23 ar
     8    4    5 ar
     9    5    6 ar
    10    5   24 1
    11    6    7 ar
    12    6   27 1
    13    7    8 ar
    14    7   28 1
    15    8    9 1
    16    8   23 ar
    17    9   10 2
    18    9   11 am
    19   11   12 1
    20   11   29 1
    21   12   22 1
    22   12   13 1
    23   12   30 1
    24   13   14 1
    25   13   31 1
    26   13   32 1
    27   14   15 1
    28   14   33 1
    29   14   34 1
    30   15   16 1
    31   15   21 1
    32   16   20 1
    33   16   17 2
    34   17   18 1
    35   17   35 1
    36   18   19 2
    37   19   20 1
    38   19   36 1
    39   21   22 1
    40   21   37 1
    41   21   38 1
    42   22   39 1
    43   22   40 1
    44   23   41 1
    45   24   42 1
##########                 Name:            smyd3_618
##########          Protonation:                 none
##########               SMILES:   CCC(=O)N1CCC(N(C)C(=O)C2=CC3=C(C=C2Cl)NC(=O)C3)CC1
##########            Long Name:   NO_LONG_NAME
##########          FlexRecCode: 1
##########               Number:                 1634
##########   Ligand Source File: /proj/zinc22/users/x_andlu/OGG1/revisions/docking/targets/smyd3/db2gen/split_par
##########                 Rank:                    1
##########               Setnum:                  104
##########             Matchnum:                    2
##########                Cloud:                    1
##########        Electrostatic:           -13.994396
##########                 Gist:             0.000000
##########        Van der Waals:           -30.834377
##########  Ligand Polar Desolv:             7.616661
########## Ligand Apolar Desolv:            -2.452188
##########      Internal Energy:             0.000000
##########      Receptor Energy:             0.000000
########## Receptor Desolvation:             0.000000
########## Receptor Hydrophobic:             0.000000
##########         Total Energy:           -39.664299
##########        Ligand Charge:             0.000000
##########            Arbitrary:    +999.9990
##########        Ligand Energy:             0.000000

@<TRIPOS>MOLECULE
smyd3_618      none
   47    49     0     0     0
SMALL
USER_CHARGES

@<TRIPOS>ATOM
      1 C1         20.3295   -3.1905   15.9643 C.3       1 <0>        -0.1400
      2 C2         19.7730   -1.9432   15.2747 C.3       1 <0>        -0.1400
      3 C3         19.0044   -1.1174   16.2739 C.2       1 <0>         0.5100
      4 O1         18.4434   -1.6579   17.2035 O.2       1 <0>        -0.5400
      5 N1         18.9405    0.2216   16.1346 N.am      1 <0>        -0.6200
      6 C4         18.8120    1.0913   17.3116 C.3       1 <0>         0.1100
      7 C5         17.6043    2.0137   17.1174 C.3       1 <0>        -0.1400
      8 C6         17.7487    2.7635   15.7907 C.3       1 <0>         0.1400
      9 N2         16.6100    3.6684   15.6157 N.am      1 <0>        -0.6100
     10 C7         15.3991    3.1994   14.9374 C.3       1 <0>         0.0700
     11 C8         16.6763    4.9325   16.0786 C.2       1 <0>         0.5700
     12 O2         17.7477    5.5047   16.1325 O.2       1 <0>        -0.5100
     13 C9         15.4489    5.6216   16.5199 C.ar      1 <0>        -0.1500
     14 C10        15.0387    6.8021   15.8916 C.ar      1 <0>        -0.0200
     15 C11        13.8956    7.4357   16.3094 C.ar      1 <0>        -0.1500
     16 C12        13.1317    6.9217   17.3539 C.ar      1 <0>         0.1800
     17 C13        13.5411    5.7435   17.9809 C.ar      1 <0>        -0.1400
     18 C14        14.6830    5.0964   17.5663 C.ar      1 <0>         0.0400
     19 Cl1        15.1782    3.6280   18.3489 Cl        1 <0>        -0.0300
     20 N3         12.0297    7.7372   17.5895 N.am      1 <0>        -0.6600
     21 C15        11.9886    8.7936   16.7607 C.2       1 <0>         0.5300
     22 O3         11.1426    9.6624   16.7428 O.2       1 <0>        -0.4900
     23 C16        13.1961    8.6958   15.8529 C.3       1 <0>        -0.1100
     24 C17        17.7863    1.7617   14.6345 C.3       1 <0>        -0.1400
     25 C18        18.9976    0.8392   14.8027 C.3       1 <0>         0.1100
     26 H1         20.8854   -3.7877   15.2415 H         1 <0>         0.0600
     27 H2         20.9932   -2.8914   16.7756 H         1 <0>         0.0600
     28 H3         19.5065   -3.7807   16.3669 H         1 <0>         0.0600
     29 H4         19.1092   -2.2422   14.4634 H         1 <0>         0.0900
     30 H5         20.5960   -1.3528   14.8720 H         1 <0>         0.0900
     31 H6         18.6661    0.4810   18.2028 H         1 <0>         0.1000
     32 H7         19.7153    1.6911   17.4234 H         1 <0>         0.0700
     33 H8         16.6913    1.4185   17.0992 H         1 <0>         0.0700
     34 H9         17.5567    2.7286   17.9389 H         1 <0>         0.0800
     35 H10        18.6731    3.3410   15.8012 H         1 <0>         0.1100
     36 H11        14.6668    4.0060   14.9021 H         1 <0>         0.0600
     37 H12        15.6479    2.8898   13.9224 H         1 <0>         0.0800
     38 H13        14.9815    2.3533   15.4833 H         1 <0>         0.0800
     39 H14        15.6199    7.2136   15.0797 H         1 <0>         0.1500
     40 H15        12.9568    5.3355   18.7925 H         1 <0>         0.1500
     41 H16        11.3657    7.5626   18.2747 H         1 <0>         0.4200
     42 H17        13.8445    9.5620   15.9846 H         1 <0>         0.1300
     43 H18        12.8853    8.6046   14.8120 H         1 <0>         0.1300
     44 H19        17.8668    2.2992   13.6898 H         1 <0>         0.0800
     45 H20        16.8727    1.1669   14.6385 H         1 <0>         0.0700
     46 H21        19.9152    1.4200   14.7082 H         1 <0>         0.0800
     47 H22        18.9769    0.0622   14.0384 H         1 <0>         0.0900
@<TRIPOS>BOND
     1    1    2 1
     2    1   26 1
     3    1   27 1
     4    1   28 1
     5    2    3 1
     6    2   29 1
     7    2   30 1
     8    3    4 2
     9    3    5 am
    10    5   25 1
    11    5    6 1
    12    6    7 1
    13    6   31 1
    14    6   32 1
    15    7    8 1
    16    7   33 1
    17    7   34 1
    18    8    9 1
    19    8   24 1
    20    8   35 1
    21    9   10 1
    22    9   11 am
    23   10   36 1
    24   10   37 1
    25   10   38 1
    26   11   12 2
    27   11   13 1
    28   13   18 ar
    29   13   14 ar
    30   14   15 ar
    31   14   39 1
    32   15   23 1
    33   15   16 ar
    34   16   17 ar
    35   16   20 1
    36   17   18 ar
    37   17   40 1
    38   18   19 1
    39   20   21 am
    40   20   41 1
    41   21   22 2
    42   21   23 1
    43   23   42 1
    44   23   43 1
    45   24   25 1
    46   24   44 1
    47   24   45 1
    48   25   46 1
    49   25   47 1
##########                 Name:            smyd3_619
##########          Protonation:                 none
##########               SMILES:   CN(C(=O)C1=CC2=C(C=C1Cl)NC(=O)C2)C1CCN(S(C)(=O)=O)CC1
##########            Long Name:   NO_LONG_NAME
##########          FlexRecCode: 1
##########               Number:                 1635
##########   Ligand Source File: /proj/zinc22/users/x_andlu/OGG1/revisions/docking/targets/smyd3/db2gen/split_par
##########                 Rank:                    1
##########               Setnum:                   39
##########             Matchnum:                    2
##########                Cloud:                    1
##########        Electrostatic:           -16.055616
##########                 Gist:             0.000000
##########        Van der Waals:           -30.938175
##########  Ligand Polar Desolv:             8.018748
########## Ligand Apolar Desolv:            -1.340009
##########      Internal Energy:             0.000000
##########      Receptor Energy:             0.000000
########## Receptor Desolvation:             0.000000
########## Receptor Hydrophobic:             0.000000
##########         Total Energy:           -40.315048
##########        Ligand Charge:             0.000000
##########            Arbitrary:    +999.9990
##########        Ligand Energy:             0.000000

@<TRIPOS>MOLECULE
smyd3_619      none
   45    47     0     0     0
SMALL
USER_CHARGES

@<TRIPOS>ATOM
      1 C1         14.2417    2.8581   15.5733 C.3       1 <0>         0.0700
      2 N1         15.5685    3.2545   16.0512 N.am      1 <0>        -0.6100
      3 C2         15.8559    4.5581   16.2378 C.2       1 <0>         0.5700
      4 O1         16.9961    4.9557   16.0951 O.2       1 <0>        -0.5100
      5 C3         14.7871    5.5023   16.6150 C.ar      1 <0>        -0.1400
      6 C4         14.4823    6.5886   15.7882 C.ar      1 <0>        -0.0200
      7 C5         13.4865    7.4613   16.1479 C.ar      1 <0>        -0.1500
      8 C6         12.7693    7.2842   17.3283 C.ar      1 <0>         0.1800
      9 C7         13.0737    6.2000   18.1534 C.ar      1 <0>        -0.1400
     10 C8         14.0667    5.3149   17.7997 C.ar      1 <0>         0.0400
     11 Cl1        14.4314    3.9662   18.8302 Cl        1 <0>        -0.0300
     12 N2         11.8206    8.2916   17.4696 N.am      1 <0>        -0.6600
     13 C9         11.8416    9.1613   16.4461 C.2       1 <0>         0.5300
     14 O2         11.1266   10.1315   16.3107 O.2       1 <0>        -0.4900
     15 C10        12.9250    8.7030   15.4932 C.3       1 <0>        -0.1100
     16 C11        16.5831    2.2342   16.3264 C.3       1 <0>         0.1400
     17 C12        16.8725    1.4450   15.0476 C.3       1 <0>        -0.1400
     18 C13        17.9584    0.4021   15.3307 C.3       1 <0>         0.1200
     19 N3         17.5340   -0.4260   16.4677 N.pl3     1 <0>        -1.0000
     20 S1         17.4877   -2.0763   16.3387 S.o2      1 <0>         2.6100
     21 C14        15.7535   -2.5062   16.6528 C.3       1 <0>        -0.6700
     22 O3         17.8269   -2.3314   14.9825 O.2       1 <0>        -0.9500
     23 O4         18.3150   -2.5341   17.3993 O.2       1 <0>        -0.9500
     24 C15        17.1457    0.2383   17.7193 C.3       1 <0>         0.1200
     25 C16        16.0688    1.2830   17.4095 C.3       1 <0>        -0.1400
     26 H1         14.1969    1.7726   15.4841 H         1 <0>         0.0600
     27 H2         13.4847    3.1959   16.2811 H         1 <0>         0.0700
     28 H3         14.0561    3.3107   14.5993 H         1 <0>         0.0800
     29 H4         15.0289    6.7398   14.8692 H         1 <0>         0.1500
     30 H5         12.5244    6.0525   19.0716 H         1 <0>         0.1500
     31 H6         11.2123    8.3582   18.2222 H         1 <0>         0.4200
     32 H7         13.6970    9.4663   15.3966 H         1 <0>         0.1300
     33 H8         12.5001    8.4623   14.5188 H         1 <0>         0.1300
     34 H9         17.4982    2.7158   16.6709 H         1 <0>         0.1100
     35 H10        17.2164    2.1265   14.2695 H         1 <0>         0.0800
     36 H11        15.9635    0.9428   14.7163 H         1 <0>         0.0800
     37 H12        18.8938    0.9057   15.5743 H         1 <0>         0.0700
     38 H13        18.1005   -0.2279   14.4526 H         1 <0>         0.1000
     39 H14        15.6296   -3.5871   16.5873 H         1 <0>         0.1300
     40 H15        15.4702   -2.1679   17.6496 H         1 <0>         0.1300
     41 H16        15.1190   -2.0219   15.9107 H         1 <0>         0.1300
     42 H17        16.7491   -0.4995   18.4167 H         1 <0>         0.1000
     43 H18        18.0148    0.7285   18.1578 H         1 <0>         0.0700
     44 H19        15.8407    1.8492   18.3126 H         1 <0>         0.0800
     45 H20        15.1674    0.7825   17.0560 H         1 <0>         0.0700
@<TRIPOS>BOND
     1    1    2 1
     2    1   26 1
     3    1   27 1
     4    1   28 1
     5    2    3 am
     6    2   16 1
     7    3    4 2
     8    3    5 1
     9    5   10 ar
    10    5    6 ar
    11    6    7 ar
    12    6   29 1
    13    7   15 1
    14    7    8 ar
    15    8    9 ar
    16    8   12 1
    17    9   10 ar
    18    9   30 1
    19   10   11 1
    20   12   13 am
    21   12   31 1
    22   13   14 2
    23   13   15 1
    24   15   32 1
    25   15   33 1
    26   16   25 1
    27   16   17 1
    28   16   34 1
    29   17   18 1
    30   17   35 1
    31   17   36 1
    32   18   19 1
    33   18   37 1
    34   18   38 1
    35   19   20 1
    36   19   24 1
    37   20   21 1
    38   20   22 2
    39   20   23 2
    40   21   39 1
    41   21   40 1
    42   21   41 1
    43   24   25 1
    44   24   42 1
    45   24   43 1
    46   25   44 1
    47   25   45 1
##########                 Name:            smyd3_620
##########          Protonation:                 none
##########               SMILES:   CN(C(=O)C1=CC2=C(C=C1Cl)NC(=O)C2)C1CC[NH+](C(C)(C)C)CC1
##########            Long Name:   NO_LONG_NAME
##########          FlexRecCode: 1
##########               Number:                 1637
##########   Ligand Source File: /proj/zinc22/users/x_andlu/OGG1/revisions/docking/targets/smyd3/db2gen/split_par
##########                 Rank:                    1
##########               Setnum:                   19
##########             Matchnum:                    1
##########                Cloud:                    1
##########        Electrostatic:           -20.226944
##########                 Gist:             0.000000
##########        Van der Waals:           -30.593081
##########  Ligand Polar Desolv:             9.876393
########## Ligand Apolar Desolv:            -2.870725
##########      Internal Energy:             0.000000
##########      Receptor Energy:             0.000000
########## Receptor Desolvation:             0.000000
########## Receptor Hydrophobic:             0.000000
##########         Total Energy:           -43.814354
##########        Ligand Charge:             1.000000
##########            Arbitrary:    +999.9990
##########        Ligand Energy:             0.000000

@<TRIPOS>MOLECULE
smyd3_620      none
   52    54     0     0     0
SMALL
USER_CHARGES

@<TRIPOS>ATOM
      1 C1         15.0489    2.8689   15.1273 C.3       1 <0>         0.0600
      2 N1         16.3185    3.3507   15.6770 N.am      1 <0>        -0.6100
      3 C2         16.4611    4.6503   16.0046 C.2       1 <0>         0.5700
      4 O1         17.5537    5.1791   15.9326 O.2       1 <0>        -0.5000
      5 C3         15.2915    5.4311   16.4506 C.ar      1 <0>        -0.1600
      6 C4         14.8868    6.5639   15.7368 C.ar      1 <0>        -0.0200
      7 C5         13.7984    7.2841   16.1602 C.ar      1 <0>        -0.1500
      8 C6         13.0849    6.9054   17.2944 C.ar      1 <0>         0.1900
      9 C7         13.4888    5.7744   18.0064 C.ar      1 <0>        -0.1400
     10 C8         14.5791    5.0444   17.5909 C.ar      1 <0>         0.0500
     11 Cl1        15.0723    3.6403   18.4847 Cl        1 <0>        -0.0300
     12 N2         12.0364    7.7911   17.5204 N.am      1 <0>        -0.6600
     13 C9         11.9785    8.7621   16.5939 C.2       1 <0>         0.5300
     14 O2         11.1674    9.6624   16.5440 O.2       1 <0>        -0.4800
     15 C10        13.1195    8.5254   15.6274 C.3       1 <0>        -0.1100
     16 C11        17.4332    2.4200   15.8707 C.3       1 <0>         0.1300
     17 C12        17.8180    1.7952   14.5265 C.3       1 <0>        -0.1600
     18 C13        18.9287    0.7660   14.7480 C.3       1 <0>        -0.0100
     19 N3         18.4544   -0.2827   15.6588 N.4       1 <0>        -0.3800
     20 H1         17.6205   -0.7051   15.2787 H         1 <0>         0.4200
     21 C14        19.4969   -1.3070   15.8065 C.3       1 <0>         0.0500
     22 C15        20.8738   -0.6612   15.6402 C.3       1 <0>        -0.1800
     23 C16        19.3955   -1.9411   17.1953 C.3       1 <0>        -0.1800
     24 C17        19.3070   -2.3857   14.7383 C.3       1 <0>        -0.1800
     25 C18        18.1514    0.2981   16.9724 C.3       1 <0>        -0.0100
     26 C19        17.0110    1.3092   16.8366 C.3       1 <0>        -0.1600
     27 H2         15.1229    1.8003   14.9251 H         1 <0>         0.0700
     28 H3         14.2500    3.0481   15.8469 H         1 <0>         0.0700
     29 H4         14.8294    3.3996   14.2010 H         1 <0>         0.0900
     30 H5         15.4293    6.8707   14.8547 H         1 <0>         0.1500
     31 H6         12.9431    5.4711   18.8877 H         1 <0>         0.1500
     32 H7         11.4154    7.7146   18.2616 H         1 <0>         0.4200
     33 H8         12.7382    8.3506   14.6215 H         1 <0>         0.1300
     34 H9         13.8067    9.3716   15.6330 H         1 <0>         0.1300
     35 H10        18.2882    2.9560   16.2828 H         1 <0>         0.1200
     36 H11        16.9479    1.3037   14.0912 H         1 <0>         0.0900
     37 H12        18.1727    2.5740   13.8513 H         1 <0>         0.1200
     38 H13        19.7983    1.2585   15.1829 H         1 <0>         0.1300
     39 H14        19.2046    0.3195   13.7926 H         1 <0>         0.1400
     40 H15        21.6473   -1.4214   15.7499 H         1 <0>         0.0800
     41 H16        20.9461   -0.2094   14.6509 H         1 <0>         0.1100
     42 H17        21.0091    0.1072   16.4015 H         1 <0>         0.0800
     43 H18        20.1691   -2.7013   17.3050 H         1 <0>         0.0800
     44 H19        19.5308   -1.1727   17.9564 H         1 <0>         0.1100
     45 H20        18.4146   -2.4013   17.3140 H         1 <0>         0.0800
     46 H21        20.0806   -3.1457   14.8479 H         1 <0>         0.0800
     47 H22        18.3261   -2.8459   14.8569 H         1 <0>         0.1000
     48 H23        19.3793   -1.9339   13.7489 H         1 <0>         0.0800
     49 H24        19.0377    0.8006   17.3600 H         1 <0>         0.1300
     50 H25        17.8541   -0.4943   17.6591 H         1 <0>         0.1400
     51 H26        16.7889    1.7406   17.8126 H         1 <0>         0.1200
     52 H27        16.1237    0.8081   16.4496 H         1 <0>         0.0900
@<TRIPOS>BOND
     1    1    2 1
     2    1   27 1
     3    1   28 1
     4    1   29 1
     5    2    3 am
     6    2   16 1
     7    3    4 2
     8    3    5 1
     9    5   10 ar
    10    5    6 ar
    11    6    7 ar
    12    6   30 1
    13    7   15 1
    14    7    8 ar
    15    8    9 ar
    16    8   12 1
    17    9   10 ar
    18    9   31 1
    19   10   11 1
    20   12   13 am
    21   12   32 1
    22   13   14 2
    23   13   15 1
    24   15   33 1
    25   15   34 1
    26   16   26 1
    27   16   17 1
    28   16   35 1
    29   17   18 1
    30   17   36 1
    31   17   37 1
    32   18   19 1
    33   18   38 1
    34   18   39 1
    35   19   20 1
    36   19   21 1
    37   19   25 1
    38   21   22 1
    39   21   23 1
    40   21   24 1
    41   22   40 1
    42   22   41 1
    43   22   42 1
    44   23   43 1
    45   23   44 1
    46   23   45 1
    47   24   46 1
    48   24   47 1
    49   24   48 1
    50   25   26 1
    51   25   49 1
    52   25   50 1
    53   26   51 1
    54   26   52 1
##########                 Name:            smyd3_621
##########          Protonation:                 none
##########               SMILES:   CN(C(=O)C1=CC2=C(C=C1Cl)NC(=O)C2)C1CCN(CC(F)F)CC1
##########            Long Name:   NO_LONG_NAME
##########          FlexRecCode: 1
##########               Number:                 1639
##########   Ligand Source File: /proj/zinc22/users/x_andlu/OGG1/revisions/docking/targets/smyd3/db2gen/split_par
##########                 Rank:                    1
##########               Setnum:                   36
##########             Matchnum:                    8
##########                Cloud:                    1
##########        Electrostatic:           -13.180267
##########                 Gist:             0.000000
##########        Van der Waals:           -29.458618
##########  Ligand Polar Desolv:             7.156335
########## Ligand Apolar Desolv:            -1.953310
##########      Internal Energy:             0.000000
##########      Receptor Energy:             0.000000
########## Receptor Desolvation:             0.000000
########## Receptor Hydrophobic:             0.000000
##########         Total Energy:           -37.435860
##########        Ligand Charge:             0.000000
##########            Arbitrary:    +999.9990
##########        Ligand Energy:             0.000000

@<TRIPOS>MOLECULE
smyd3_621      none
   45    47     0     0     0
SMALL
USER_CHARGES

@<TRIPOS>ATOM
      1 C1         15.0137    2.9217   15.1010 C.3       1 <0>         0.0700
      2 N1         16.2914    3.4025   15.6328 N.am      1 <0>        -0.6000
      3 C2         16.4342    4.6982   15.9748 C.2       1 <0>         0.5600
      4 O1         17.5227    5.2333   15.8890 O.2       1 <0>        -0.5100
      5 C3         15.2711    5.4658   16.4588 C.ar      1 <0>        -0.1400
      6 C4         14.8425    6.6053   15.7699 C.ar      1 <0>        -0.0200
      7 C5         13.7593    7.3122   16.2278 C.ar      1 <0>        -0.1500
      8 C6         13.0747    6.9134   17.3728 C.ar      1 <0>         0.1800
      9 C7         13.5026    5.7764   18.0605 C.ar      1 <0>        -0.1400
     10 C8         14.5846    5.0563   17.6071 C.ar      1 <0>         0.0400
     11 Cl1        15.1032    3.6399   18.4665 Cl        1 <0>        -0.0300
     12 N2         12.0218    7.7851   17.6310 N.am      1 <0>        -0.6600
     13 C9         11.9396    8.7712   16.7223 C.2       1 <0>         0.5300
     14 O2         11.1215    9.6661   16.7029 O.2       1 <0>        -0.4900
     15 C10        13.0599    8.5555   15.7272 C.3       1 <0>        -0.1100
     16 C11        17.4138    2.4746   15.7929 C.3       1 <0>         0.1400
     17 C12        17.7766    1.8710   14.4333 C.3       1 <0>        -0.1200
     18 C13        18.9087    0.8577   14.6163 C.3       1 <0>         0.0500
     19 N3         18.4776   -0.1981   15.5413 N.3       1 <0>        -0.5300
     20 C14        19.4868   -1.2615   15.6338 C.3       1 <0>         0.0100
     21 C15        19.0030   -2.3408   16.6044 C.3       1 <0>         0.2200
     22 F1         19.6989   -3.5303   16.3634 F         1 <0>        -0.2000
     23 F2         19.2346   -1.9232   17.9193 F         1 <0>        -0.2000
     24 C16        18.1691    0.3514   16.8677 C.3       1 <0>         0.0400
     25 C17        17.0148    1.3496   16.7518 C.3       1 <0>        -0.1200
     26 H1         15.0886    1.8563   14.8833 H         1 <0>         0.0600
     27 H2         14.2279    3.0876   15.8381 H         1 <0>         0.0800
     28 H3         14.7740    3.4634   14.1862 H         1 <0>         0.0800
     29 H4         15.3625    6.9276   14.8799 H         1 <0>         0.1500
     30 H5         12.9795    5.4575   18.9498 H         1 <0>         0.1500
     31 H6         11.4152    7.6913   18.3820 H         1 <0>         0.4200
     32 H7         13.7425    9.4053   15.7301 H         1 <0>         0.1300
     33 H8         12.6570    8.3911   14.7277 H         1 <0>         0.1300
     34 H9         18.2736    3.0094   16.1963 H         1 <0>         0.1000
     35 H10        16.9044    1.3702   14.0130 H         1 <0>         0.0800
     36 H11        18.1024    2.6629   13.7588 H         1 <0>         0.0700
     37 H12        19.7851    1.3619   15.0237 H         1 <0>         0.0500
     38 H13        19.1595    0.4156   13.6521 H         1 <0>         0.0800
     39 H14        19.6420   -1.7019   14.6487 H         1 <0>         0.1100
     40 H15        20.4252   -0.8414   15.9959 H         1 <0>         0.1100
     41 H16        17.9359   -2.5083   16.4588 H         1 <0>         0.1100
     42 H17        19.0489    0.8579   17.2645 H         1 <0>         0.0600
     43 H18        17.8829   -0.4585   17.5387 H         1 <0>         0.0800
     44 H19        16.7965    1.7689   17.7340 H         1 <0>         0.0700
     45 H20        16.1307    0.8407   16.3681 H         1 <0>         0.0800
@<TRIPOS>BOND
     1    1    2 1
     2    1   26 1
     3    1   27 1
     4    1   28 1
     5    2    3 am
     6    2   16 1
     7    3    4 2
     8    3    5 1
     9    5   10 ar
    10    5    6 ar
    11    6    7 ar
    12    6   29 1
    13    7   15 1
    14    7    8 ar
    15    8    9 ar
    16    8   12 1
    17    9   10 ar
    18    9   30 1
    19   10   11 1
    20   12   13 am
    21   12   31 1
    22   13   14 2
    23   13   15 1
    24   15   32 1
    25   15   33 1
    26   16   25 1
    27   16   17 1
    28   16   34 1
    29   17   18 1
    30   17   35 1
    31   17   36 1
    32   18   19 1
    33   18   37 1
    34   18   38 1
    35   19   20 1
    36   19   24 1
    37   20   21 1
    38   20   39 1
    39   20   40 1
    40   21   22 1
    41   21   23 1
    42   21   41 1
    43   24   25 1
    44   24   42 1
    45   24   43 1
    46   25   44 1
    47   25   45 1
##########                 Name:            smyd3_625
##########          Protonation:                 none
##########               SMILES:   CC1(NC(=O)C2=CC3=C(C=C2Cl)NC(=O)C3)CCN(S(N)(=O)=O)CC1
##########            Long Name:   NO_LONG_NAME
##########          FlexRecCode: 1
##########               Number:                 1655
##########   Ligand Source File: /proj/zinc22/users/x_andlu/OGG1/revisions/docking/targets/smyd3/db2gen/split_par
##########                 Rank:                    1
##########               Setnum:                   19
##########             Matchnum:                    3
##########                Cloud:                    1
##########        Electrostatic:           -18.716494
##########                 Gist:             0.000000
##########        Van der Waals:           -32.074799
##########  Ligand Polar Desolv:             8.151293
########## Ligand Apolar Desolv:            -0.596339
##########      Internal Energy:             0.000000
##########      Receptor Energy:             0.000000
########## Receptor Desolvation:             0.000000
########## Receptor Hydrophobic:             0.000000
##########         Total Energy:           -43.236340
##########        Ligand Charge:             0.000000
##########            Arbitrary:    +999.9990
##########        Ligand Energy:             0.000000

@<TRIPOS>MOLECULE
smyd3_625      none
   44    46     0     0     0
SMALL
USER_CHARGES

@<TRIPOS>ATOM
      1 C1         18.6731    4.1419   14.4796 C.3       1 <0>        -0.1600
      2 C2         17.9949    3.3151   15.5737 C.3       1 <0>         0.1800
      3 N1         17.0533    4.1607   16.3117 N.am      1 <0>        -0.7200
      4 C3         16.0277    4.7499   15.6657 C.2       1 <0>         0.5600
      5 O1         15.8838    4.5796   14.4705 O.2       1 <0>        -0.5100
      6 C4         15.0796    5.6015   16.4088 C.ar      1 <0>        -0.1600
      7 C5         14.9201    6.9471   16.0622 C.ar      1 <0>        -0.0200
      8 C6         14.0354    7.7310   16.7591 C.ar      1 <0>        -0.1500
      9 C7         13.2889    7.2078   17.8118 C.ar      1 <0>         0.1900
     10 C8         13.4482    5.8647   18.1576 C.ar      1 <0>        -0.1400
     11 C9         14.3328    5.0691   17.4654 C.ar      1 <0>         0.0500
     12 Cl1        14.5172    3.3985   17.9001 Cl        1 <0>        -0.0100
     13 N2         12.4700    8.1920   18.3555 N.am      1 <0>        -0.6600
     14 C10        12.6093    9.3745   17.7335 C.2       1 <0>         0.5300
     15 O2         12.0211   10.4014   17.9986 O.2       1 <0>        -0.4900
     16 C11        13.6385    9.1848   16.6395 C.3       1 <0>        -0.1100
     17 C12        17.2392    2.1472   14.9358 C.3       1 <0>        -0.1400
     18 C13        16.5331    1.3417   16.0305 C.3       1 <0>         0.1200
     19 N3         17.5256    0.9401   17.0366 N.pl3     1 <0>        -1.0000
     20 S1         17.6899   -0.6491   17.4723 S.o2      1 <0>         2.7900
     21 N4         18.8143   -1.3214   16.4594 N.pl3     1 <0>        -1.2600
     22 O3         18.2672   -0.6516   18.7707 O.2       1 <0>        -0.9800
     23 O4         16.4516   -1.2778   17.1712 O.2       1 <0>        -0.9800
     24 C14        18.3700    1.9751   17.6484 C.3       1 <0>         0.1200
     25 C15        19.0555    2.7738   16.5352 C.3       1 <0>        -0.1400
     26 H1         17.9178    4.5276   13.7949 H         1 <0>         0.0600
     27 H2         19.2107    4.9743   14.9338 H         1 <0>         0.0700
     28 H3         19.3741    3.5130   13.9307 H         1 <0>         0.0800
     29 H4         17.1682    4.2966   17.2653 H         1 <0>         0.4000
     30 H5         15.4914    7.3681   15.2480 H         1 <0>         0.1400
     31 H6         12.8746    5.4479   18.9723 H         1 <0>         0.1500
     32 H7         11.8662    8.0413   19.0995 H         1 <0>         0.4200
     33 H8         14.4997    9.8313   16.8088 H         1 <0>         0.1300
     34 H9         13.1980    9.3815   15.6622 H         1 <0>         0.1300
     35 H10        16.4997    2.5326   14.2337 H         1 <0>         0.1000
     36 H11        17.9428    1.5040   14.4071 H         1 <0>         0.0800
     37 H12        16.0758    0.4539   15.5935 H         1 <0>         0.1000
     38 H13        15.7656    1.9572   16.4996 H         1 <0>         0.0700
     39 H14        19.7538   -1.3078   16.7004 H         1 <0>         0.4100
     40 H15        18.5333   -1.7288   15.6251 H         1 <0>         0.4200
     41 H16        19.1248    1.5054   18.2789 H         1 <0>         0.1000
     42 H17        17.7523    2.6423   18.2495 H         1 <0>         0.0700
     43 H18        19.7419    2.1247   15.9916 H         1 <0>         0.0900
     44 H19        19.6094    3.6051   16.9714 H         1 <0>         0.0900
@<TRIPOS>BOND
     1    1    2 1
     2    1   26 1
     3    1   27 1
     4    1   28 1
     5    2   25 1
     6    2    3 1
     7    2   17 1
     8    3    4 am
     9    3   29 1
    10    4    5 2
    11    4    6 1
    12    6   11 ar
    13    6    7 ar
    14    7    8 ar
    15    7   30 1
    16    8   16 1
    17    8    9 ar
    18    9   10 ar
    19    9   13 1
    20   10   11 ar
    21   10   31 1
    22   11   12 1
    23   13   14 am
    24   13   32 1
    25   14   15 2
    26   14   16 1
    27   16   33 1
    28   16   34 1
    29   17   18 1
    30   17   35 1
    31   17   36 1
    32   18   19 1
    33   18   37 1
    34   18   38 1
    35   19   20 1
    36   19   24 1
    37   20   21 1
    38   20   22 2
    39   20   23 2
    40   21   39 1
    41   21   40 1
    42   24   25 1
    43   24   41 1
    44   24   42 1
    45   25   43 1
    46   25   44 1
##########                 Name:            smyd3_626
##########          Protonation:                 none
##########               SMILES:   CC1(NC(=O)C2=CC3=C(C=C2Cl)NC(=O)C3)CCN(CC(N)=O)CC1
##########            Long Name:   NO_LONG_NAME
##########          FlexRecCode: 1
##########               Number:                 1658
##########   Ligand Source File: /proj/zinc22/users/x_andlu/OGG1/revisions/docking/targets/smyd3/db2gen/split_par
##########                 Rank:                    1
##########               Setnum:                   17
##########             Matchnum:                    2
##########                Cloud:                    1
##########        Electrostatic:           -19.134434
##########                 Gist:             0.000000
##########        Van der Waals:           -31.939806
##########  Ligand Polar Desolv:             8.095226
########## Ligand Apolar Desolv:            -0.679883
##########      Internal Energy:             0.000000
##########      Receptor Energy:             0.000000
########## Receptor Desolvation:             0.000000
########## Receptor Hydrophobic:             0.000000
##########         Total Energy:           -43.658897
##########        Ligand Charge:             0.000000
##########            Arbitrary:    +999.9990
##########        Ligand Energy:             0.000000

@<TRIPOS>MOLECULE
smyd3_626      none
   46    48     0     0     0
SMALL
USER_CHARGES

@<TRIPOS>ATOM
      1 C1         19.0042    4.3531   14.5799 C.3       1 <0>        -0.1600
      2 C2         18.3030    3.4301   15.5784 C.3       1 <0>         0.1800
      3 N1         17.2552    4.1747   16.2811 N.am      1 <0>        -0.7200
      4 C3         16.2428    4.7311   15.5868 C.2       1 <0>         0.5600
      5 O1         16.1992    4.6150   14.3772 O.2       1 <0>        -0.5000
      6 C4         15.1877    5.4810   16.2944 C.ar      1 <0>        -0.1500
      7 C5         14.9646    6.8303   16.0010 C.ar      1 <0>        -0.0200
      8 C6         13.9805    7.5190   16.6643 C.ar      1 <0>        -0.1500
      9 C7         13.1949    6.8962   17.6290 C.ar      1 <0>         0.1900
     10 C8         13.4179    5.5485   17.9230 C.ar      1 <0>        -0.1400
     11 C9         14.4023    4.8478   17.2639 C.ar      1 <0>         0.0500
     12 Cl1        14.6655    3.1716   17.6313 Cl        1 <0>        -0.0100
     13 N2         12.2743    7.7958   18.1555 N.am      1 <0>        -0.6600
     14 C10        12.3797    9.0158   17.6031 C.2       1 <0>         0.5300
     15 O2         11.7062    9.9882   17.8708 O.2       1 <0>        -0.4900
     16 C11        13.4972    8.9492   16.5838 C.3       1 <0>        -0.1100
     17 C12        17.6778    2.2486   14.8313 C.3       1 <0>        -0.1200
     18 C13        17.0306    1.2982   15.8432 C.3       1 <0>         0.0500
     19 N3         18.0473    0.8210   16.7893 N.3       1 <0>        -0.5200
     20 C14        17.4919   -0.1991   17.6887 C.3       1 <0>         0.0300
     21 C15        17.4556   -1.5281   16.9794 C.2       1 <0>         0.5100
     22 N4         18.3727   -1.8126   16.0335 N.am      1 <0>        -0.8600
     23 O3         16.6012   -2.3420   17.2597 O.2       1 <0>        -0.5200
     24 C16        18.6279    1.9342   17.5510 C.3       1 <0>         0.0600
     25 C17        19.3230    2.9028   16.5914 C.3       1 <0>        -0.1200
     26 H1         18.2774    4.7279   13.8592 H         1 <0>         0.0500
     27 H2         19.4528    5.1913   15.1130 H         1 <0>         0.0700
     28 H3         19.7821    3.7976   14.0559 H         1 <0>         0.0800
     29 H4         17.2900    4.2673   17.2460 H         1 <0>         0.3900
     30 H5         15.5649    7.3285   15.2542 H         1 <0>         0.1400
     31 H6         12.8149    5.0541   18.6703 H         1 <0>         0.1500
     32 H7         11.6288    7.5685   18.8428 H         1 <0>         0.4200
     33 H8         14.2983    9.6389   16.8494 H         1 <0>         0.1300
     34 H9         13.1177    9.1688   15.5860 H         1 <0>         0.1300
     35 H10        16.9206    2.6157   14.1386 H         1 <0>         0.0900
     36 H11        18.4520    1.7178   14.2772 H         1 <0>         0.0800
     37 H12        16.5972    0.4479   15.3166 H         1 <0>         0.0900
     38 H13        16.2473    1.8259   16.3872 H         1 <0>         0.0300
     39 H14        18.1173   -0.2788   18.5779 H         1 <0>         0.1100
     40 H15        16.4807    0.0850   17.9800 H         1 <0>         0.0600
     41 H16        19.0560   -1.1617   15.8093 H         1 <0>         0.4000
     42 H17        18.3492   -2.6680   15.5769 H         1 <0>         0.4000
     43 H18        19.3545    1.5460   18.2647 H         1 <0>         0.0800
     44 H19        17.8372    2.4589   18.0870 H         1 <0>         0.0300
     45 H20        20.1230    2.3822   16.0649 H         1 <0>         0.0900
     46 H21        19.7409    3.7371   17.1549 H         1 <0>         0.0800
@<TRIPOS>BOND
     1    1    2 1
     2    1   26 1
     3    1   27 1
     4    1   28 1
     5    2   25 1
     6    2    3 1
     7    2   17 1
     8    3    4 am
     9    3   29 1
    10    4    5 2
    11    4    6 1
    12    6   11 ar
    13    6    7 ar
    14    7    8 ar
    15    7   30 1
    16    8   16 1
    17    8    9 ar
    18    9   10 ar
    19    9   13 1
    20   10   11 ar
    21   10   31 1
    22   11   12 1
    23   13   14 am
    24   13   32 1
    25   14   15 2
    26   14   16 1
    27   16   33 1
    28   16   34 1
    29   17   18 1
    30   17   35 1
    31   17   36 1
    32   18   19 1
    33   18   37 1
    34   18   38 1
    35   19   20 1
    36   19   24 1
    37   20   21 1
    38   20   39 1
    39   20   40 1
    40   21   22 am
    41   21   23 2
    42   22   41 1
    43   22   42 1
    44   24   25 1
    45   24   43 1
    46   24   44 1
    47   25   45 1
    48   25   46 1
##########                 Name:            smyd3_627
##########          Protonation:                 none
##########               SMILES:   N#CC1CN(C2CC2)CCC1NC(=O)C1=C(Cl)C=C2NC(=O)CC2=C1
##########            Long Name:   NO_LONG_NAME
##########          FlexRecCode: 1
##########               Number:                 1660
##########   Ligand Source File: /proj/zinc22/users/x_andlu/OGG1/revisions/docking/targets/smyd3/db2gen/split_par
##########                 Rank:                    1
##########               Setnum:                    2
##########             Matchnum:                    8
##########                Cloud:                    1
##########        Electrostatic:           -18.108469
##########                 Gist:             0.000000
##########        Van der Waals:           -33.219963
##########  Ligand Polar Desolv:             6.439354
########## Ligand Apolar Desolv:            -1.708516
##########      Internal Energy:             0.000000
##########      Receptor Energy:             0.000000
########## Receptor Desolvation:             0.000000
########## Receptor Hydrophobic:             0.000000
##########         Total Energy:           -46.597591
##########        Ligand Charge:             0.000000
##########            Arbitrary:    +999.9990
##########        Ligand Energy:             0.000000

@<TRIPOS>MOLECULE
smyd3_627      none
   44    47     0     0     0
SMALL
USER_CHARGES

@<TRIPOS>ATOM
      1 N1         20.1285    5.2972   16.1647 N.1       1 <0>        -0.4100
      2 C1         19.6821    4.2574   16.2644 C.1       1 <0>         0.2000
      3 C2         19.1036    2.9100   16.3936 C.3       1 <0>         0.0000
      4 C3         20.0367    1.8885   15.7396 C.3       1 <0>         0.0600
      5 N2         19.4500    0.5468   15.8496 N.3       1 <0>        -0.5000
      6 C4         20.3808   -0.4769   15.3561 C.3       1 <0>         0.0200
      7 C5         20.3221   -1.8591   16.0095 C.3       1 <0>        -0.1900
      8 C6         21.5008   -0.9258   16.2969 C.3       1 <0>        -0.2100
      9 C7         18.1630    0.4708   15.1466 C.3       1 <0>         0.0500
     10 C8         17.1740    1.4500   15.7829 C.3       1 <0>        -0.1200
     11 C9         17.7412    2.8696   15.6958 C.3       1 <0>         0.1600
     12 N3         16.8248    3.8041   16.3539 N.am      1 <0>        -0.7300
     13 C10        15.8442    4.3980   15.6452 C.2       1 <0>         0.5600
     14 O1         15.7202    4.1581   14.4596 O.2       1 <0>        -0.5100
     15 C11        14.9215    5.3391   16.3079 C.ar      1 <0>        -0.1600
     16 C12        14.1257    4.9113   17.3756 C.ar      1 <0>         0.0500
     17 Cl1        14.2232    3.2668   17.9234 Cl        1 <0>        -0.0100
     18 C13        13.2650    5.7906   17.9935 C.ar      1 <0>        -0.1400
     19 C14        13.1797    7.1146   17.5602 C.ar      1 <0>         0.1900
     20 N4         12.3976    8.1692   18.0194 N.am      1 <0>        -0.6600
     21 C15        12.6091    9.3017   17.3286 C.2       1 <0>         0.5300
     22 O2         12.0659   10.3702   17.5135 O.2       1 <0>        -0.4900
     23 C16        13.6529    8.9943   16.2760 C.3       1 <0>        -0.1100
     24 C17        13.9754    7.5339   16.4966 C.ar      1 <0>        -0.1500
     25 C18        14.8400    6.6677   15.8770 C.ar      1 <0>        -0.0200
     26 H1         18.9794    2.6669   17.4489 H         1 <0>         0.1300
     27 H2         20.1713    2.1408   14.6877 H         1 <0>         0.0500
     28 H3         21.0032    1.9046   16.2434 H         1 <0>         0.1000
     29 H4         20.6059   -0.4330   14.2905 H         1 <0>         0.1300
     30 H5         19.5927   -2.0089   16.8055 H         1 <0>         0.1000
     31 H6         20.5088   -2.7246   15.3737 H         1 <0>         0.1000
     32 H7         22.4627   -1.1776   15.8501 H         1 <0>         0.1000
     33 H8         21.5471   -0.4615   17.2819 H         1 <0>         0.0900
     34 H9         17.7687   -0.5427   15.2196 H         1 <0>         0.0900
     35 H10        18.3065    0.7297   14.0976 H         1 <0>         0.0400
     36 H11        16.2237    1.4045   15.2509 H         1 <0>         0.0900
     37 H12        17.0190    1.1828   16.8282 H         1 <0>         0.0800
     38 H13        17.8593    3.1511   14.6495 H         1 <0>         0.1000
     39 H14        16.9238    3.9956   17.2997 H         1 <0>         0.4000
     40 H15        12.6526    5.4543   18.8170 H         1 <0>         0.1500
     41 H16        11.7699    8.0951   18.7553 H         1 <0>         0.4200
     42 H17        13.2454    9.1490   15.2770 H         1 <0>         0.1300
     43 H18        14.5395    9.6105   16.4257 H         1 <0>         0.1300
     44 H19        15.4530    7.0092   15.0561 H         1 <0>         0.1400
@<TRIPOS>BOND
     1    1    2 3
     2    2    3 1
     3    3   11 1
     4    3    4 1
     5    3   26 1
     6    4    5 1
     7    4   27 1
     8    4   28 1
     9    5    6 1
    10    5    9 1
    11    6    8 1
    12    6    7 1
    13    6   29 1
    14    7    8 1
    15    7   30 1
    16    7   31 1
    17    8   32 1
    18    8   33 1
    19    9   10 1
    20    9   34 1
    21    9   35 1
    22   10   11 1
    23   10   36 1
    24   10   37 1
    25   11   12 1
    26   11   38 1
    27   12   13 am
    28   12   39 1
    29   13   14 2
    30   13   15 1
    31   15   25 ar
    32   15   16 ar
    33   16   17 1
    34   16   18 ar
    35   18   19 ar
    36   18   40 1
    37   19   24 ar
    38   19   20 1
    39   20   21 am
    40   20   41 1
    41   21   22 2
    42   21   23 1
    43   23   24 1
    44   23   42 1
    45   23   43 1
    46   24   25 ar
    47   25   44 1
##########                 Name:            smyd3_628
##########          Protonation:                 none
##########               SMILES:   CCC1CN(C(C)=O)CCC1NC(=O)C1=CC2=C(C=C1Cl)NC(=O)C2
##########            Long Name:   NO_LONG_NAME
##########          FlexRecCode: 1
##########               Number:                 1664
##########   Ligand Source File: /proj/zinc22/users/x_andlu/OGG1/revisions/docking/targets/smyd3/db2gen/split_par
##########                 Rank:                    1
##########               Setnum:                    4
##########             Matchnum:                    1
##########                Cloud:                    1
##########        Electrostatic:           -11.230195
##########                 Gist:             0.000000
##########        Van der Waals:           -31.203108
##########  Ligand Polar Desolv:             6.203784
########## Ligand Apolar Desolv:            -1.902693
##########      Internal Energy:             0.000000
##########      Receptor Energy:             0.000000
########## Receptor Desolvation:             0.000000
########## Receptor Hydrophobic:             0.000000
##########         Total Energy:           -38.132214
##########        Ligand Charge:             0.000000
##########            Arbitrary:    +999.9990
##########        Ligand Energy:             0.000000

@<TRIPOS>MOLECULE
smyd3_628      none
   47    49     0     0     0
SMALL
USER_CHARGES

@<TRIPOS>ATOM
      1 C1         20.6141    7.6770   13.4959 C.3       1 <0>        -0.1600
      2 C2         19.4483    6.7168   13.7409 C.3       1 <0>        -0.1200
      3 C3         19.9306    5.5333   14.5821 C.3       1 <0>        -0.1100
      4 C4         21.0464    4.7959   13.8351 C.3       1 <0>         0.1200
      5 N1         21.4106    3.5910   14.5929 N.am      1 <0>        -0.6200
      6 C5         22.6915    3.3616   14.9439 C.2       1 <0>         0.5100
      7 C6         23.0490    2.1210   15.7212 C.3       1 <0>        -0.1800
      8 O1         23.5562    4.1535   14.6342 O.2       1 <0>        -0.5400
      9 C7         20.3463    2.6435   14.9621 C.3       1 <0>         0.1100
     10 C8         19.2383    3.4049   15.6965 C.3       1 <0>        -0.1500
     11 C9         18.7650    4.5725   14.8276 C.3       1 <0>         0.1500
     12 N2         17.6824    5.2832   15.5126 N.am      1 <0>        -0.7200
     13 C10        16.4020    4.9112   15.3163 C.2       1 <0>         0.5600
     14 O2         16.1453    3.9857   14.5706 O.2       1 <0>        -0.5100
     15 C11        15.3119    5.6269   16.0060 C.ar      1 <0>        -0.1600
     16 C12        15.1294    6.9986   15.8013 C.ar      1 <0>        -0.0200
     17 C13        14.1090    7.6543   16.4429 C.ar      1 <0>        -0.1500
     18 C14        13.2536    6.9770   17.3081 C.ar      1 <0>         0.1900
     19 C15        13.4395    5.6092   17.5167 C.ar      1 <0>        -0.1400
     20 C16        14.4564    4.9403   16.8743 C.ar      1 <0>         0.0500
     21 Cl1        14.6779    3.2393   17.1416 Cl        1 <0>        -0.0100
     22 N3         12.3112    7.8537   17.8356 N.am      1 <0>        -0.6600
     23 C17        12.4682    9.1078   17.3806 C.2       1 <0>         0.5300
     24 O3         11.7907   10.0702   17.6733 O.2       1 <0>        -0.4900
     25 C18        13.6498    9.0946   16.4344 C.3       1 <0>        -0.1100
     26 H1         20.2706    8.5202   12.8966 H         1 <0>         0.0600
     27 H2         20.9923    8.0405   14.4514 H         1 <0>         0.0600
     28 H3         21.4100    7.1543   12.9653 H         1 <0>         0.0600
     29 H4         19.0701    6.3533   12.7854 H         1 <0>         0.0700
     30 H5         18.6525    7.2394   14.2715 H         1 <0>         0.0700
     31 H6         20.3104    5.8965   15.5370 H         1 <0>         0.0800
     32 H7         20.6959    4.5116   12.8429 H         1 <0>         0.0700
     33 H8         21.9161    5.4464   13.7428 H         1 <0>         0.1000
     34 H9         24.1222    2.1084   15.9116 H         1 <0>         0.0900
     35 H10        22.5118    2.1191   16.6697 H         1 <0>         0.0900
     36 H11        22.7719    1.2386   15.1448 H         1 <0>         0.0900
     37 H12        20.7550    1.8728   15.6156 H         1 <0>         0.0900
     38 H13        19.9381    2.1814   14.0632 H         1 <0>         0.0800
     39 H14        19.6245    3.7878   16.6412 H         1 <0>         0.0700
     40 H15        18.4021    2.7333   15.8902 H         1 <0>         0.0900
     41 H16        18.4019    4.1907   13.8733 H         1 <0>         0.1000
     42 H17        17.8873    6.0216   16.1074 H         1 <0>         0.4000
     43 H18        15.7869    7.5392   15.1366 H         1 <0>         0.1400
     44 H19        12.7819    5.0734   18.1853 H         1 <0>         0.1500
     45 H20        11.6189    7.5892   18.4614 H         1 <0>         0.4200
     46 H21        13.3402    9.3910   15.4321 H         1 <0>         0.1300
     47 H22        14.4391    9.7518   16.7994 H         1 <0>         0.1300
@<TRIPOS>BOND
     1    1    2 1
     2    1   26 1
     3    1   27 1
     4    1   28 1
     5    2    3 1
     6    2   29 1
     7    2   30 1
     8    3   11 1
     9    3    4 1
    10    3   31 1
    11    4    5 1
    12    4   32 1
    13    4   33 1
    14    5    6 am
    15    5    9 1
    16    6    7 1
    17    6    8 2
    18    7   34 1
    19    7   35 1
    20    7   36 1
    21    9   10 1
    22    9   37 1
    23    9   38 1
    24   10   11 1
    25   10   39 1
    26   10   40 1
    27   11   12 1
    28   11   41 1
    29   12   13 am
    30   12   42 1
    31   13   14 2
    32   13   15 1
    33   15   20 ar
    34   15   16 ar
    35   16   17 ar
    36   16   43 1
    37   17   25 1
    38   17   18 ar
    39   18   19 ar
    40   18   22 1
    41   19   20 ar
    42   19   44 1
    43   20   21 1
    44   22   23 am
    45   22   45 1
    46   23   24 2
    47   23   25 1
    48   25   46 1
    49   25   47 1
##########                 Name:            smyd3_630
##########          Protonation:                 none
##########               SMILES:   CC1CN(S(C)(=O)=O)CCC1NC(=O)C1=CC2=C(C=C1Cl)NC(=O)C2
##########            Long Name:   NO_LONG_NAME
##########          FlexRecCode: 1
##########               Number:                 1667
##########   Ligand Source File: /proj/zinc22/users/x_andlu/OGG1/revisions/docking/targets/smyd3/db2gen/split_par
##########                 Rank:                    1
##########               Setnum:                   15
##########             Matchnum:                    1
##########                Cloud:                    1
##########        Electrostatic:           -20.372589
##########                 Gist:             0.000000
##########        Van der Waals:           -29.897659
##########  Ligand Polar Desolv:             8.064960
########## Ligand Apolar Desolv:            -1.223913
##########      Internal Energy:             0.000000
##########      Receptor Energy:             0.000000
########## Receptor Desolvation:             0.000000
########## Receptor Hydrophobic:             0.000000
##########         Total Energy:           -43.429199
##########        Ligand Charge:             0.000000
##########            Arbitrary:    +999.9990
##########        Ligand Energy:             0.000000

@<TRIPOS>MOLECULE
smyd3_630      none
   45    47     0     0     0
SMALL
USER_CHARGES

@<TRIPOS>ATOM
      1 C1         15.9266    1.7179   14.8335 C.3       1 <0>        -0.1500
      2 C2         17.1821    1.6644   15.7064 C.3       1 <0>        -0.1200
      3 C3         18.2238    0.7540   15.0485 C.3       1 <0>         0.1300
      4 N1         19.4667    0.8160   15.8295 N.pl3     1 <0>        -1.0000
      5 S1         20.1837   -0.5693   16.3855 S.o2      1 <0>         2.6100
      6 C4         21.3164   -1.0580   15.0556 C.3       1 <0>        -0.6700
      7 O1         20.9116   -0.1511   17.5320 O.2       1 <0>        -0.9500
      8 O2         19.1137   -1.4979   16.4955 O.2       1 <0>        -0.9500
      9 C5         20.0614    2.1304   16.1076 C.3       1 <0>         0.1200
     10 C6         18.9991    3.0254   16.7536 C.3       1 <0>        -0.1500
     11 C7         17.7621    3.0730   15.8539 C.3       1 <0>         0.1500
     12 N2         16.7567    3.9545   16.4526 N.am      1 <0>        -0.7200
     13 C8         15.9000    4.6330   15.6640 C.2       1 <0>         0.5600
     14 O3         15.9616    4.5136   14.4554 O.2       1 <0>        -0.5100
     15 C9         14.8876    5.5207   16.2668 C.ar      1 <0>        -0.1500
     16 C10        14.8775    6.8861   15.9638 C.ar      1 <0>        -0.0200
     17 C11        13.9283    7.7024   16.5252 C.ar      1 <0>        -0.1500
     18 C12        12.9757    7.1950   17.4050 C.ar      1 <0>         0.1900
     19 C13        12.9895    5.8333   17.7120 C.ar      1 <0>        -0.1400
     20 C14        13.9339    5.0039   17.1506 C.ar      1 <0>         0.0500
     21 Cl1        13.9412    3.3122   17.5395 Cl        1 <0>        -0.0100
     22 N3         12.1334    8.2129   17.8404 N.am      1 <0>        -0.6600
     23 C15        12.4523    9.4038   17.3071 C.2       1 <0>         0.5300
     24 O4         11.8889   10.4583   17.5112 O.2       1 <0>        -0.4900
     25 C16        13.6471    9.1830   16.4039 C.3       1 <0>        -0.1100
     26 H1         15.5139    0.7145   14.7287 H         1 <0>         0.0600
     27 H2         15.1869    2.3682   15.3004 H         1 <0>         0.0600
     28 H3         16.1847    2.1091   13.8494 H         1 <0>         0.0600
     29 H4         16.9253    1.2718   16.6902 H         1 <0>         0.0800
     30 H5         17.8540   -0.2713   15.0309 H         1 <0>         0.1000
     31 H6         18.4146    1.0932   14.0304 H         1 <0>         0.0800
     32 H7         21.8374   -1.9723   15.3397 H         1 <0>         0.1300
     33 H8         20.7494   -1.2321   14.1411 H         1 <0>         0.1300
     34 H9         22.0430   -0.2632   14.8868 H         1 <0>         0.1300
     35 H10        20.4021    2.5819   15.1759 H         1 <0>         0.0800
     36 H11        20.9052    2.0155   16.7879 H         1 <0>         0.1000
     37 H12        19.3979    4.0323   16.8773 H         1 <0>         0.0900
     38 H13        18.7251    2.6206   17.7278 H         1 <0>         0.0700
     39 H14        18.0415    3.4553   14.8722 H         1 <0>         0.1000
     40 H15        16.7075    4.0497   17.4167 H         1 <0>         0.4000
     41 H16        15.6121    7.2960   15.2865 H         1 <0>         0.1400
     42 H17        12.2554    5.4283   18.3928 H         1 <0>         0.1500
     43 H18        11.3987    8.0778   18.4591 H         1 <0>         0.4200
     44 H19        13.4006    9.4420   15.3741 H         1 <0>         0.1300
     45 H20        14.5006    9.7658   16.7498 H         1 <0>         0.1300
@<TRIPOS>BOND
     1    1    2 1
     2    1   26 1
     3    1   27 1
     4    1   28 1
     5    2   11 1
     6    2    3 1
     7    2   29 1
     8    3    4 1
     9    3   30 1
    10    3   31 1
    11    4    5 1
    12    4    9 1
    13    5    6 1
    14    5    7 2
    15    5    8 2
    16    6   32 1
    17    6   33 1
    18    6   34 1
    19    9   10 1
    20    9   35 1
    21    9   36 1
    22   10   11 1
    23   10   37 1
    24   10   38 1
    25   11   12 1
    26   11   39 1
    27   12   13 am
    28   12   40 1
    29   13   14 2
    30   13   15 1
    31   15   20 ar
    32   15   16 ar
    33   16   17 ar
    34   16   41 1
    35   17   25 1
    36   17   18 ar
    37   18   19 ar
    38   18   22 1
    39   19   20 ar
    40   19   42 1
    41   20   21 1
    42   22   23 am
    43   22   43 1
    44   23   24 2
    45   23   25 1
    46   25   44 1
    47   25   45 1
##########                 Name:            smyd3_633
##########          Protonation:                 none
##########               SMILES:   CC(C)C(=O)N1CCC(NC(=O)C2=CC3=C(C=C2Cl)NC(=O)C3)CC1
##########            Long Name:   NO_LONG_NAME
##########          FlexRecCode: 1
##########               Number:                 1674
##########   Ligand Source File: /proj/zinc22/users/x_andlu/OGG1/revisions/docking/targets/smyd3/db2gen/split_par
##########                 Rank:                    1
##########               Setnum:                   34
##########             Matchnum:                    5
##########                Cloud:                    1
##########        Electrostatic:           -17.804516
##########                 Gist:             0.000000
##########        Van der Waals:           -35.804440
##########  Ligand Polar Desolv:             8.087202
########## Ligand Apolar Desolv:            -2.045295
##########      Internal Energy:             0.000000
##########      Receptor Energy:             0.000000
########## Receptor Desolvation:             0.000000
########## Receptor Hydrophobic:             0.000000
##########         Total Energy:           -47.567047
##########        Ligand Charge:             0.000000
##########            Arbitrary:    +999.9990
##########        Ligand Energy:             0.000000

@<TRIPOS>MOLECULE
smyd3_633      none
   47    49     0     0     0
SMALL
USER_CHARGES

@<TRIPOS>ATOM
      1 C1         21.6074   -2.0070   14.4466 C.3       1 <0>        -0.1400
      2 C2         20.2064   -1.4861   14.7737 C.3       1 <0>        -0.1200
      3 C3         19.3600   -2.6245   15.3469 C.3       1 <0>        -0.1400
      4 C4         20.3075   -0.3757   15.7875 C.2       1 <0>         0.5200
      5 O1         20.8016   -0.5899   16.8742 O.2       1 <0>        -0.5400
      6 N1         19.8486    0.8554   15.4866 N.am      1 <0>        -0.6200
      7 C5         18.7229    1.0284   14.5584 C.3       1 <0>         0.1100
      8 C6         17.6470    1.8817   15.2374 C.3       1 <0>        -0.1400
      9 C7         18.2708    3.1931   15.7201 C.3       1 <0>         0.1500
     10 N2         17.2374    4.0259   16.3405 N.am      1 <0>        -0.7200
     11 C8         16.1671    4.4186   15.6218 C.2       1 <0>         0.5600
     12 O2         16.0591    4.0818   14.4584 O.2       1 <0>        -0.5100
     13 C9         15.1264    5.2570   16.2465 C.ar      1 <0>        -0.1600
     14 C10        14.8327    6.5212   15.7246 C.ar      1 <0>        -0.0200
     15 C11        13.8631    7.2934   16.3127 C.ar      1 <0>        -0.1500
     16 C12        13.1618    6.8390   17.4265 C.ar      1 <0>         0.1900
     17 C13        13.4550    5.5774   17.9473 C.ar      1 <0>        -0.1400
     18 C14        14.4218    4.7915   17.3619 C.ar      1 <0>         0.0500
     19 Cl1        14.7728    3.2214   18.0140 Cl        1 <0>        -0.0100
     20 N3         12.2386    7.7955   17.8362 N.am      1 <0>        -0.6600
     21 C15        12.2624    8.8936   17.0626 C.2       1 <0>         0.5300
     22 O3         11.5675    9.8793   17.1898 O.2       1 <0>        -0.4900
     23 C16        13.3192    8.6694   16.0019 C.3       1 <0>        -0.1100
     24 C17        19.3664    2.8919   16.7452 C.3       1 <0>        -0.1400
     25 C18        20.4620    2.0501   16.0833 C.3       1 <0>         0.1100
     26 H1         22.2105   -1.1959   14.0383 H         1 <0>         0.0600
     27 H2         22.0756   -2.3858   15.3551 H         1 <0>         0.0600
     28 H3         21.5344   -2.8101   13.7133 H         1 <0>         0.0700
     29 H4         19.7385   -1.1071   13.8652 H         1 <0>         0.0900
     30 H5         18.3620   -2.2535   15.5798 H         1 <0>         0.0600
     31 H6         19.2871   -3.4276   14.6136 H         1 <0>         0.0600
     32 H7         19.8281   -3.0034   16.2553 H         1 <0>         0.0700
     33 H8         18.3081    0.0538   14.3013 H         1 <0>         0.1000
     34 H9         19.0688    1.5285   13.6538 H         1 <0>         0.0800
     35 H10        16.8509    2.0981   14.5248 H         1 <0>         0.0900
     36 H11        17.2361    1.3392   16.0889 H         1 <0>         0.0800
     37 H12        18.7032    3.7234   14.8716 H         1 <0>         0.0900
     38 H13        17.3236    4.2946   17.2685 H         1 <0>         0.4000
     39 H14        15.3673    6.8880   14.8609 H         1 <0>         0.1400
     40 H15        12.9180    5.2144   18.8112 H         1 <0>         0.1500
     41 H16        11.6446    7.6824   18.5945 H         1 <0>         0.4200
     42 H17        14.1066    9.4188   16.0827 H         1 <0>         0.1300
     43 H18        12.8727    8.6883   15.0077 H         1 <0>         0.1300
     44 H19        19.7943    3.8273   17.1058 H         1 <0>         0.0800
     45 H20        18.9393    2.3404   17.5828 H         1 <0>         0.0700
     46 H21        20.9515    2.6347   15.3043 H         1 <0>         0.0700
     47 H22        21.1959    1.7517   16.8319 H         1 <0>         0.1000
@<TRIPOS>BOND
     1    1    2 1
     2    1   26 1
     3    1   27 1
     4    1   28 1
     5    2    3 1
     6    2    4 1
     7    2   29 1
     8    3   30 1
     9    3   31 1
    10    3   32 1
    11    4    5 2
    12    4    6 am
    13    6   25 1
    14    6    7 1
    15    7    8 1
    16    7   33 1
    17    7   34 1
    18    8    9 1
    19    8   35 1
    20    8   36 1
    21    9   10 1
    22    9   24 1
    23    9   37 1
    24   10   11 am
    25   10   38 1
    26   11   12 2
    27   11   13 1
    28   13   18 ar
    29   13   14 ar
    30   14   15 ar
    31   14   39 1
    32   15   23 1
    33   15   16 ar
    34   16   17 ar
    35   16   20 1
    36   17   18 ar
    37   17   40 1
    38   18   19 1
    39   20   21 am
    40   20   41 1
    41   21   22 2
    42   21   23 1
    43   23   42 1
    44   23   43 1
    45   24   25 1
    46   24   44 1
    47   24   45 1
    48   25   46 1
    49   25   47 1
##########                 Name:            smyd3_634
##########          Protonation:                 none
##########               SMILES:   O=C1CC2=CC(C(=O)NC3CCN(C(=O)C4CC4)CC3)=C(Cl)C=C2N1
##########            Long Name:   NO_LONG_NAME
##########          FlexRecCode: 1
##########               Number:                 1676
##########   Ligand Source File: /proj/zinc22/users/x_andlu/OGG1/revisions/docking/targets/smyd3/db2gen/split_par
##########                 Rank:                    1
##########               Setnum:                   58
##########             Matchnum:                    2
##########                Cloud:                    1
##########        Electrostatic:           -16.021353
##########                 Gist:             0.000000
##########        Van der Waals:           -34.941345
##########  Ligand Polar Desolv:             7.247895
########## Ligand Apolar Desolv:            -2.229555
##########      Internal Energy:             0.000000
##########      Receptor Energy:             0.000000
########## Receptor Desolvation:             0.000000
########## Receptor Hydrophobic:             0.000000
##########         Total Energy:           -45.944359
##########        Ligand Charge:             0.000000
##########            Arbitrary:    +999.9990
##########        Ligand Energy:             0.000000

@<TRIPOS>MOLECULE
smyd3_634      none
   45    48     0     0     0
SMALL
USER_CHARGES

@<TRIPOS>ATOM
      1 O1         11.4503    9.8001   16.8065 O.2       1 <0>        -0.4900
      2 C1         12.1601    8.8179   16.7586 C.2       1 <0>         0.5300
      3 C2         13.1870    8.5020   15.6920 C.3       1 <0>        -0.1100
      4 C3         13.7673    7.1749   16.1249 C.ar      1 <0>        -0.1500
      5 C4         14.7325    6.3617   15.5877 C.ar      1 <0>        -0.0200
      6 C5         15.0674    5.1633   16.2275 C.ar      1 <0>        -0.1600
      7 C6         16.1037    4.2811   15.6580 C.2       1 <0>         0.5600
      8 O2         15.9653    3.8234   14.5400 O.2       1 <0>        -0.5100
      9 N1         17.2013    3.9781   16.3791 N.am      1 <0>        -0.7200
     10 C7         18.2276    3.0975   15.8158 C.3       1 <0>         0.1500
     11 C8         17.6091    1.7355   15.4923 C.3       1 <0>        -0.1400
     12 C9         18.6767    0.8287   14.8717 C.3       1 <0>         0.1100
     13 N2         19.8306    0.7672   15.7791 N.am      1 <0>        -0.6100
     14 C10        20.3152   -0.4197   16.1943 C.2       1 <0>         0.5500
     15 O3         20.8457   -0.5117   17.2811 O.2       1 <0>        -0.5400
     16 C11        20.1979   -1.6330   15.3081 C.3       1 <0>        -0.2000
     17 C12        18.8988   -2.4380   15.3808 C.3       1 <0>        -0.1500
     18 C13        20.1856   -3.0047   15.9862 C.3       1 <0>        -0.1500
     19 C14        20.4459    2.0245   16.2257 C.3       1 <0>         0.1100
     20 C15        19.3585    2.9178   16.8312 C.3       1 <0>        -0.1400
     21 C16        14.4082    4.8052   17.4079 C.ar      1 <0>         0.0500
     22 Cl1        14.8102    3.3172   18.2066 Cl        1 <0>        -0.0100
     23 C17        13.4445    5.6317   17.9409 C.ar      1 <0>        -0.1400
     24 C18        13.1104    6.8272   17.3029 C.ar      1 <0>         0.1900
     25 N3         12.1822    7.8061   17.6419 N.am      1 <0>        -0.6600
     26 H1         13.9617    9.2685   15.6685 H         1 <0>         0.1300
     27 H2         12.7091    8.4104   14.7167 H         1 <0>         0.1300
     28 H3         15.2323    6.6455   14.6734 H         1 <0>         0.1400
     29 H4         17.3118    4.3432   17.2709 H         1 <0>         0.4000
     30 H5         18.6260    3.5411   14.9033 H         1 <0>         0.0900
     31 H6         17.2327    1.2800   16.4083 H         1 <0>         0.0700
     32 H7         16.7886    1.8668   14.7869 H         1 <0>         0.0800
     33 H8         18.9890    1.2370   13.9105 H         1 <0>         0.0800
     34 H9         18.2689   -0.1722   14.7307 H         1 <0>         0.0900
     35 H10        20.6883   -1.5557   14.3377 H         1 <0>         0.1300
     36 H11        18.1289   -2.0901   16.0697 H         1 <0>         0.1000
     37 H12        18.5348   -2.8906   14.4585 H         1 <0>         0.1100
     38 H13        20.6677   -3.8296   15.4617 H         1 <0>         0.1000
     39 H14        20.2624   -3.0294   17.0730 H         1 <0>         0.1100
     40 H15        20.9025    2.5303   15.3749 H         1 <0>         0.0700
     41 H16        21.2055    1.8125   16.9782 H         1 <0>         0.1000
     42 H17        19.7831    3.8907   17.0787 H         1 <0>         0.0900
     43 H18        18.9656    2.4518   17.7347 H         1 <0>         0.0700
     44 H19        12.9419    5.3516   18.8549 H         1 <0>         0.1500
     45 H20        11.6146    7.7627   18.4273 H         1 <0>         0.4200
@<TRIPOS>BOND
     1    1    2 2
     2    2   25 am
     3    2    3 1
     4    3    4 1
     5    3   26 1
     6    3   27 1
     7    4   24 ar
     8    4    5 ar
     9    5    6 ar
    10    5   28 1
    11    6    7 1
    12    6   21 ar
    13    7    8 2
    14    7    9 am
    15    9   10 1
    16    9   29 1
    17   10   20 1
    18   10   11 1
    19   10   30 1
    20   11   12 1
    21   11   31 1
    22   11   32 1
    23   12   13 1
    24   12   33 1
    25   12   34 1
    26   13   14 am
    27   13   19 1
    28   14   15 2
    29   14   16 1
    30   16   18 1
    31   16   17 1
    32   16   35 1
    33   17   18 1
    34   17   36 1
    35   17   37 1
    36   18   38 1
    37   18   39 1
    38   19   20 1
    39   19   40 1
    40   19   41 1
    41   20   42 1
    42   20   43 1
    43   21   22 1
    44   21   23 ar
    45   23   24 ar
    46   23   44 1
    47   24   25 1
    48   25   45 1
##########                 Name:            smyd3_635
##########          Protonation:                 none
##########               SMILES:   COCC(=O)N1CCC(NC(=O)C2=CC3=C(C=C2Cl)NC(=O)C3)CC1
##########            Long Name:   NO_LONG_NAME
##########          FlexRecCode: 1
##########               Number:                 1679
##########   Ligand Source File: /proj/zinc22/users/x_andlu/OGG1/revisions/docking/targets/smyd3/db2gen/split_par
##########                 Rank:                    1
##########               Setnum:                   86
##########             Matchnum:                   12
##########                Cloud:                    1
##########        Electrostatic:           -18.614206
##########                 Gist:             0.000000
##########        Van der Waals:           -34.916851
##########  Ligand Polar Desolv:             7.878348
########## Ligand Apolar Desolv:            -1.702866
##########      Internal Energy:             0.000000
##########      Receptor Energy:             0.000000
########## Receptor Desolvation:             0.000000
########## Receptor Hydrophobic:             0.000000
##########         Total Energy:           -47.355576
##########        Ligand Charge:             0.000000
##########            Arbitrary:    +999.9990
##########        Ligand Energy:             0.000000

@<TRIPOS>MOLECULE
smyd3_635      none
   45    47     0     0     0
SMALL
USER_CHARGES

@<TRIPOS>ATOM
      1 C1         18.9144   -3.1015   15.8933 C.3       1 <0>         0.0300
      2 O1         18.9256   -2.1376   14.8383 O.3       1 <0>        -0.3700
      3 C2         20.1739   -1.4597   14.6836 C.3       1 <0>         0.0400
      4 C3         20.2821   -0.3650   15.7136 C.2       1 <0>         0.5200
      5 O2         20.7744   -0.5984   16.7972 O.2       1 <0>        -0.5200
      6 N1         19.8317    0.8734   15.4308 N.am      1 <0>        -0.6200
      7 C4         18.7072    1.0679   14.5053 C.3       1 <0>         0.1200
      8 C5         17.6371    1.9183   15.1968 C.3       1 <0>        -0.1400
      9 C6         18.2698    3.2183   15.6987 C.3       1 <0>         0.1500
     10 N2         17.2421    4.0488   16.3314 N.am      1 <0>        -0.7200
     11 C7         16.1746    4.4595   15.6185 C.2       1 <0>         0.5600
     12 O3         16.0645    4.1407   14.4503 O.2       1 <0>        -0.5100
     13 C8         15.1397    5.2958   16.2555 C.ar      1 <0>        -0.1600
     14 C9         14.8547    6.5695   15.7524 C.ar      1 <0>        -0.0200
     15 C10        13.8905    7.3398   16.3519 C.ar      1 <0>        -0.1500
     16 C11        13.1860    6.8736   17.4590 C.ar      1 <0>         0.1900
     17 C12        13.4703    5.6024   17.9609 C.ar      1 <0>        -0.1400
     18 C13        14.4317    4.8188   17.3639 C.ar      1 <0>         0.0500
     19 Cl1        14.7717    3.2367   17.9926 Cl        1 <0>        -0.0100
     20 N3         12.2695    7.8304   17.8826 N.am      1 <0>        -0.6600
     21 C14        12.3009    8.9396   17.1255 C.2       1 <0>         0.5300
     22 O4         11.6128    9.9282   17.2673 O.2       1 <0>        -0.4900
     23 C15        13.3562    8.7239   16.0616 C.3       1 <0>        -0.1100
     24 C16        19.3633    2.8945   16.7193 C.3       1 <0>        -0.1500
     25 C17        20.4531    2.0550   16.0451 C.3       1 <0>         0.1100
     26 H1         17.9324   -3.5716   15.9455 H         1 <0>         0.0400
     27 H2         19.6713   -3.8615   15.6990 H         1 <0>         0.0900
     28 H3         19.1312   -2.6066   16.8399 H         1 <0>         0.0500
     29 H4         20.2306   -1.0260   13.6852 H         1 <0>         0.0800
     30 H5         20.9912   -2.1680   14.8190 H         1 <0>         0.0800
     31 H6         18.2858    0.1000   14.2338 H         1 <0>         0.1000
     32 H7         19.0566    1.5788   13.6081 H         1 <0>         0.0700
     33 H8         16.8426    2.1506   14.4875 H         1 <0>         0.0900
     34 H9         17.2224    1.3662   16.0402 H         1 <0>         0.0700
     35 H10        18.7060    3.7580   14.8582 H         1 <0>         0.1000
     36 H11        17.3300    4.3033   17.2633 H         1 <0>         0.4000
     37 H12        15.3920    6.9455   14.8943 H         1 <0>         0.1400
     38 H13        12.9308    5.2305   18.8192 H         1 <0>         0.1500
     39 H14        11.6745    7.7102   18.6393 H         1 <0>         0.4200
     40 H15        14.1488    9.4666   16.1534 H         1 <0>         0.1300
     41 H16        12.9099    8.7606   15.0679 H         1 <0>         0.1300
     42 H17        19.7975    3.8215   17.0937 H         1 <0>         0.0900
     43 H18        18.9323    2.3336   17.5486 H         1 <0>         0.0700
     44 H19        20.9466    2.6477   15.2749 H         1 <0>         0.0800
     45 H20        21.1849    1.7406   16.7891 H         1 <0>         0.0900
@<TRIPOS>BOND
     1    1    2 1
     2    1   26 1
     3    1   27 1
     4    1   28 1
     5    2    3 1
     6    3    4 1
     7    3   29 1
     8    3   30 1
     9    4    5 2
    10    4    6 am
    11    6   25 1
    12    6    7 1
    13    7    8 1
    14    7   31 1
    15    7   32 1
    16    8    9 1
    17    8   33 1
    18    8   34 1
    19    9   10 1
    20    9   24 1
    21    9   35 1
    22   10   11 am
    23   10   36 1
    24   11   12 2
    25   11   13 1
    26   13   18 ar
    27   13   14 ar
    28   14   15 ar
    29   14   37 1
    30   15   23 1
    31   15   16 ar
    32   16   17 ar
    33   16   20 1
    34   17   18 ar
    35   17   38 1
    36   18   19 1
    37   20   21 am
    38   20   39 1
    39   21   22 2
    40   21   23 1
    41   23   40 1
    42   23   41 1
    43   24   25 1
    44   24   42 1
    45   24   43 1
    46   25   44 1
    47   25   45 1
##########                 Name:            smyd3_636
##########          Protonation:                 none
##########               SMILES:   CN(C)C(=O)N1CCC(NC(=O)C2=CC3=C(C=C2Cl)NC(=O)C3)CC1
##########            Long Name:   NO_LONG_NAME
##########          FlexRecCode: 1
##########               Number:                 1682
##########   Ligand Source File: /proj/zinc22/users/x_andlu/OGG1/revisions/docking/targets/smyd3/db2gen/split_par
##########                 Rank:                    1
##########               Setnum:                    3
##########             Matchnum:                    4
##########                Cloud:                    1
##########        Electrostatic:           -17.614475
##########                 Gist:             0.000000
##########        Van der Waals:           -31.708078
##########  Ligand Polar Desolv:             7.226385
########## Ligand Apolar Desolv:            -1.427668
##########      Internal Energy:             0.000000
##########      Receptor Energy:             0.000000
########## Receptor Desolvation:             0.000000
########## Receptor Hydrophobic:             0.000000
##########         Total Energy:           -43.523838
##########        Ligand Charge:             0.000000
##########            Arbitrary:    +999.9990
##########        Ligand Energy:             0.000000

@<TRIPOS>MOLECULE
smyd3_636      none
   46    48     0     0     0
SMALL
USER_CHARGES

@<TRIPOS>ATOM
      1 C1         24.9535    4.2862   15.3008 C.3       1 <0>         0.1100
      2 N1         23.7158    3.6759   14.8087 N.am      1 <0>        -0.6400
      3 C2         23.4594    3.5986   13.3685 C.3       1 <0>         0.0700
      4 C3         22.8130    3.1858   15.6812 C.2       1 <0>         0.7100
      5 O1         23.1809    2.7425   16.7520 O.2       1 <0>        -0.5800
      6 N2         21.5020    3.1920   15.3689 N.am      1 <0>        -0.6300
      7 C4         20.9463    4.2311   14.4914 C.3       1 <0>         0.0700
      8 C5         19.7633    4.8950   15.1936 C.3       1 <0>        -0.1500
      9 C6         18.7557    3.8229   15.6148 C.3       1 <0>         0.1500
     10 N3         17.6063    4.4605   16.2617 N.am      1 <0>        -0.7200
     11 C7         16.5465    4.8467   15.5240 C.2       1 <0>         0.5600
     12 O2         16.5445    4.6661   14.3216 O.2       1 <0>        -0.5100
     13 C8         15.3889    5.4886   16.1755 C.ar      1 <0>        -0.1600
     14 C9         14.9981    6.7796   15.8050 C.ar      1 <0>        -0.0200
     15 C10        13.9202    7.3680   16.4168 C.ar      1 <0>        -0.1500
     16 C11        13.2037    6.6993   17.4059 C.ar      1 <0>         0.1900
     17 C12        13.5938    5.4108   17.7756 C.ar      1 <0>        -0.1400
     18 C13        14.6701    4.8084   17.1645 C.ar      1 <0>         0.0500
     19 Cl1        15.1414    3.2031   17.6274 Cl        1 <0>        -0.0100
     20 N4         12.1636    7.4985   17.8690 N.am      1 <0>        -0.6600
     21 C14        12.1205    8.6906   17.2513 C.2       1 <0>         0.5300
     22 O3         11.3210    9.5792   17.4559 O.2       1 <0>        -0.4900
     23 C15        13.2568    8.7164   16.2513 C.3       1 <0>        -0.1100
     24 C16        19.4197    2.8537   16.5956 C.3       1 <0>        -0.1400
     25 C17        20.6000    2.1632   15.9048 C.3       1 <0>         0.1300
     26 H1         24.9668    4.2531   16.3902 H         1 <0>         0.0500
     27 H2         25.8099    3.7367   14.9100 H         1 <0>         0.0700
     28 H3         25.0046    5.3230   14.9681 H         1 <0>         0.0700
     29 H4         22.4973    3.1165   13.1960 H         1 <0>         0.0600
     30 H5         23.4426    4.6040   12.9478 H         1 <0>         0.0700
     31 H6         24.2480    3.0177   12.8898 H         1 <0>         0.0800
     32 H7         21.7110    4.9787   14.2808 H         1 <0>         0.1200
     33 H8         20.6076    3.7793   13.5591 H         1 <0>         0.0700
     34 H9         19.2829    5.5984   14.5134 H         1 <0>         0.0800
     35 H10        20.1189    5.4269   16.0761 H         1 <0>         0.0700
     36 H11        18.4191    3.2751   14.7348 H         1 <0>         0.0900
     37 H12        17.6079    4.6047   17.2210 H         1 <0>         0.4000
     38 H13        15.5432    7.3116   15.0393 H         1 <0>         0.1400
     39 H14        13.0458    4.8825   18.5417 H         1 <0>         0.1500
     40 H15        11.5397    7.2256   18.5598 H         1 <0>         0.4200
     41 H16        13.9563    9.5181   16.4883 H         1 <0>         0.1300
     42 H17        12.8717    8.8310   15.2381 H         1 <0>         0.1300
     43 H18        18.6950    2.1040   16.9133 H         1 <0>         0.0800
     44 H19        19.7787    3.4047   17.4648 H         1 <0>         0.0700
     45 H20        20.2325    1.5393   15.0900 H         1 <0>         0.0700
     46 H21        21.1369    1.5454   16.6246 H         1 <0>         0.1000
@<TRIPOS>BOND
     1    1    2 1
     2    1   26 1
     3    1   27 1
     4    1   28 1
     5    2    3 1
     6    2    4 am
     7    3   29 1
     8    3   30 1
     9    3   31 1
    10    4    5 2
    11    4    6 am
    12    6   25 1
    13    6    7 1
    14    7    8 1
    15    7   32 1
    16    7   33 1
    17    8    9 1
    18    8   34 1
    19    8   35 1
    20    9   10 1
    21    9   24 1
    22    9   36 1
    23   10   11 am
    24   10   37 1
    25   11   12 2
    26   11   13 1
    27   13   18 ar
    28   13   14 ar
    29   14   15 ar
    30   14   38 1
    31   15   23 1
    32   15   16 ar
    33   16   17 ar
    34   16   20 1
    35   17   18 ar
    36   17   39 1
    37   18   19 1
    38   20   21 am
    39   20   40 1
    40   21   22 2
    41   21   23 1
    42   23   41 1
    43   23   42 1
    44   24   25 1
    45   24   43 1
    46   24   44 1
    47   25   45 1
    48   25   46 1
##########                 Name:            smyd3_637
##########          Protonation:                 none
##########               SMILES:   CCOC(=O)N1CCC(NC(=O)C2=CC3=C(C=C2Cl)NC(=O)C3)CC1
##########            Long Name:   NO_LONG_NAME
##########          FlexRecCode: 1
##########               Number:                 1683
##########   Ligand Source File: /proj/zinc22/users/x_andlu/OGG1/revisions/docking/targets/smyd3/db2gen/split_par
##########                 Rank:                    1
##########               Setnum:                   26
##########             Matchnum:                    7
##########                Cloud:                    1
##########        Electrostatic:           -16.091316
##########                 Gist:             0.000000
##########        Van der Waals:           -35.598866
##########  Ligand Polar Desolv:             6.746627
########## Ligand Apolar Desolv:            -1.868563
##########      Internal Energy:             0.000000
##########      Receptor Energy:             0.000000
########## Receptor Desolvation:             0.000000
########## Receptor Hydrophobic:             0.000000
##########         Total Energy:           -46.812115
##########        Ligand Charge:             0.000000
##########            Arbitrary:    +999.9990
##########        Ligand Energy:             0.000000

@<TRIPOS>MOLECULE
smyd3_637      none
   45    47     0     0     0
SMALL
USER_CHARGES

@<TRIPOS>ATOM
      1 C1         21.3883   -3.1646   14.5581 C.3       1 <0>        -0.1500
      2 C2         20.2747   -2.7848   15.5362 C.3       1 <0>         0.0800
      3 O1         19.7363   -1.4855   15.1760 O.3       1 <0>        -0.3700
      4 C3         20.3159   -0.4070   15.7359 C.2       1 <0>         0.6500
      5 O2         21.2464   -0.5477   16.5048 O.2       1 <0>        -0.5700
      6 N1         19.8643    0.8288   15.4439 N.am      1 <0>        -0.6000
      7 C4         18.7377    1.0151   14.5193 C.3       1 <0>         0.1300
      8 C5         17.6686    1.8706   15.2062 C.3       1 <0>        -0.1400
      9 C6         18.3018    3.1750   15.6960 C.3       1 <0>         0.1500
     10 N2         17.2750    4.0102   16.3240 N.am      1 <0>        -0.7200
     11 C7         16.2057    4.4144   15.6101 C.2       1 <0>         0.5600
     12 O3         16.0932    4.0859   14.4449 O.2       1 <0>        -0.5100
     13 C8         15.1717    5.2554   16.2425 C.ar      1 <0>        -0.1600
     14 C9         14.8850    6.5248   15.7296 C.ar      1 <0>        -0.0200
     15 C10        13.9216    7.2994   16.3249 C.ar      1 <0>        -0.1500
     16 C11        13.2198    6.8421   17.4373 C.ar      1 <0>         0.1900
     17 C12        13.5060    5.5752   17.9491 C.ar      1 <0>        -0.1400
     18 C13        14.4665    4.7872   17.3564 C.ar      1 <0>         0.0500
     19 Cl1        14.8088    3.2105   17.9974 Cl        1 <0>        -0.0100
     20 N3         12.3038    7.8019   17.8551 N.am      1 <0>        -0.6600
     21 C14        12.3330    8.9048   17.0888 C.2       1 <0>         0.5300
     22 O4         11.6446    9.8941   17.2240 O.2       1 <0>        -0.4900
     23 C15        13.3859    8.6808   16.0244 C.3       1 <0>        -0.1100
     24 C16        19.3977    2.8602   16.7168 C.3       1 <0>        -0.1500
     25 C17        20.4864    2.0158   16.0470 C.3       1 <0>         0.1100
     26 H1         21.7925   -4.1400   14.8286 H         1 <0>         0.0800
     27 H2         20.9848   -3.2062   13.5465 H         1 <0>         0.0700
     28 H3         22.1811   -2.4177   14.6025 H         1 <0>         0.0700
     29 H4         20.6784   -2.7431   16.5480 H         1 <0>         0.0700
     30 H5         19.4820   -3.5316   15.4919 H         1 <0>         0.0700
     31 H6         18.3161    0.0447   14.2568 H         1 <0>         0.1000
     32 H7         19.0848    1.5187   13.6172 H         1 <0>         0.0800
     33 H8         16.8724    2.0966   14.4968 H         1 <0>         0.0900
     34 H9         17.2561    1.3253   16.0550 H         1 <0>         0.0800
     35 H10        18.7357    3.7080   14.8501 H         1 <0>         0.1000
     36 H11        17.3648    4.2723   17.2537 H         1 <0>         0.4000
     37 H12        15.4201    6.8940   14.8672 H         1 <0>         0.1400
     38 H13        12.9686    5.2101   18.8116 H         1 <0>         0.1500
     39 H14        11.7105    7.6875   18.6140 H         1 <0>         0.4200
     40 H15        14.1784    9.4246   16.1082 H         1 <0>         0.1300
     41 H16        12.9375    8.7091   15.0313 H         1 <0>         0.1300
     42 H17        19.8322    3.7905   17.0825 H         1 <0>         0.0900
     43 H18        18.9689    2.3060   17.5516 H         1 <0>         0.0700
     44 H19        20.9779    2.6023   15.2709 H         1 <0>         0.0800
     45 H20        21.2201    1.7079   16.7920 H         1 <0>         0.1000
@<TRIPOS>BOND
     1    1    2 1
     2    1   26 1
     3    1   27 1
     4    1   28 1
     5    2    3 1
     6    2   29 1
     7    2   30 1
     8    3    4 1
     9    4    5 2
    10    4    6 am
    11    6   25 1
    12    6    7 1
    13    7    8 1
    14    7   31 1
    15    7   32 1
    16    8    9 1
    17    8   33 1
    18    8   34 1
    19    9   10 1
    20    9   24 1
    21    9   35 1
    22   10   11 am
    23   10   36 1
    24   11   12 2
    25   11   13 1
    26   13   18 ar
    27   13   14 ar
    28   14   15 ar
    29   14   37 1
    30   15   23 1
    31   15   16 ar
    32   16   17 ar
    33   16   20 1
    34   17   18 ar
    35   17   38 1
    36   18   19 1
    37   20   21 am
    38   20   39 1
    39   21   22 2
    40   21   23 1
    41   23   40 1
    42   23   41 1
    43   24   25 1
    44   24   42 1
    45   24   43 1
    46   25   44 1
    47   25   45 1
##########                 Name:            smyd3_638
##########          Protonation:                 none
##########               SMILES:   O=C1CC2=CC(C(=O)NC3CCN(C4=NNC=N4)CC3)=C(Cl)C=C2N1
##########            Long Name:   NO_LONG_NAME
##########          FlexRecCode: 1
##########               Number:                 1685
##########   Ligand Source File: /proj/zinc22/users/x_andlu/OGG1/revisions/docking/targets/smyd3/db2gen/split_par
##########                 Rank:                    1
##########               Setnum:                    4
##########             Matchnum:                    1
##########                Cloud:                    1
##########        Electrostatic:           -14.995491
##########                 Gist:             0.000000
##########        Van der Waals:           -32.772297
##########  Ligand Polar Desolv:             7.072293
########## Ligand Apolar Desolv:            -1.792686
##########      Internal Energy:             0.000000
##########      Receptor Energy:             0.000000
########## Receptor Desolvation:             0.000000
########## Receptor Hydrophobic:             0.000000
##########         Total Energy:           -42.488182
##########        Ligand Charge:             0.000000
##########            Arbitrary:    +999.9990
##########        Ligand Energy:             0.000000

@<TRIPOS>MOLECULE
smyd3_638      none
   42    45     0     0     0
SMALL
USER_CHARGES

@<TRIPOS>ATOM
      1 O1         11.5109    9.7642   17.6293 O.2       1 <0>        -0.4900
      2 C1         12.2720    8.8440   17.4179 C.2       1 <0>         0.5300
      3 C2         13.3271    8.7812   16.3341 C.3       1 <0>        -0.1100
      4 C3         13.9717    7.4276   16.5293 C.ar      1 <0>        -0.1500
      5 C4         14.9854    6.7763   15.8738 C.ar      1 <0>        -0.0200
      6 C5         15.3759    5.4991   16.2909 C.ar      1 <0>        -0.1500
      7 C6         16.4650    4.7900   15.5930 C.2       1 <0>         0.5600
      8 O2         16.3654    4.5391   14.4074 O.2       1 <0>        -0.5100
      9 N1         17.5704    4.4202   16.2695 N.am      1 <0>        -0.7200
     10 C7         18.6520    3.7159   15.5763 C.3       1 <0>         0.1400
     11 C8         19.3746    2.7923   16.5609 C.3       1 <0>        -0.1300
     12 C9         20.5409    2.1056   15.8465 C.3       1 <0>         0.0700
     13 N2         21.4672    3.1216   15.3307 N.pl3     1 <0>        -0.4400
     14 C10        22.6087    2.5287   14.7884 C.2       1 <0>         0.4000
     15 N3         23.3288    3.0154   13.8055 N.2       1 <0>        -0.3500
     16 N4         24.3762    2.1069   13.5822 N.pl3     1 <0>        -0.4800
     17 C11        24.2068    1.1064   14.4627 C.2       1 <0>         0.2800
     18 N5         23.1446    1.3689   15.1809 N.2       1 <0>        -0.5500
     19 C12        20.8081    3.9910   14.3477 C.3       1 <0>         0.0700
     20 C13        19.6499    4.7340   15.0174 C.3       1 <0>        -0.1300
     21 C14        14.7218    4.8976   17.3711 C.ar      1 <0>         0.0500
     22 Cl1        15.1929    3.3103   17.8930 Cl        1 <0>        -0.0100
     23 C15        13.7094    5.5631   18.0253 C.ar      1 <0>        -0.1400
     24 C16        13.3198    6.8370   17.6093 C.ar      1 <0>         0.1900
     25 N6         12.3370    7.6894   18.1014 N.am      1 <0>        -0.6600
     26 H1         14.0603    9.5765   16.4678 H         1 <0>         0.1300
     27 H2         12.8666    8.8465   15.3482 H         1 <0>         0.1300
     28 H3         15.4805    7.2480   15.0379 H         1 <0>         0.1400
     29 H4         17.6517    4.6240   17.2142 H         1 <0>         0.4000
     30 H5         18.2373    3.1258   14.7590 H         1 <0>         0.0900
     31 H6         19.7547    3.3784   17.3976 H         1 <0>         0.0800
     32 H7         18.6794    2.0384   16.9299 H         1 <0>         0.0800
     33 H8         20.1588    1.5087   15.0183 H         1 <0>         0.0500
     34 H9         21.0662    1.4581   16.5485 H         1 <0>         0.1000
     35 H10        25.0808    2.1844   12.9201 H         1 <0>         0.4400
     36 H11        24.8379    0.2355   14.5607 H         1 <0>         0.2300
     37 H12        20.4247    3.3854   13.5266 H         1 <0>         0.0500
     38 H13        21.5277    4.7128   13.9614 H         1 <0>         0.0900
     39 H14        19.1511    5.3673   14.2836 H         1 <0>         0.0800
     40 H15        20.0342    5.3505   15.8299 H         1 <0>         0.0800
     41 H16        13.2115    5.0952   18.8617 H         1 <0>         0.1500
     42 H17        11.7632    7.4743   18.8533 H         1 <0>         0.4200
@<TRIPOS>BOND
     1    1    2 2
     2    2   25 am
     3    2    3 1
     4    3    4 1
     5    3   26 1
     6    3   27 1
     7    4   24 ar
     8    4    5 ar
     9    5    6 ar
    10    5   28 1
    11    6    7 1
    12    6   21 ar
    13    7    8 2
    14    7    9 am
    15    9   10 1
    16    9   29 1
    17   10   20 1
    18   10   11 1
    19   10   30 1
    20   11   12 1
    21   11   31 1
    22   11   32 1
    23   12   13 1
    24   12   33 1
    25   12   34 1
    26   13   14 1
    27   13   19 1
    28   14   18 1
    29   14   15 2
    30   15   16 1
    31   16   17 1
    32   16   35 1
    33   17   18 2
    34   17   36 1
    35   19   20 1
    36   19   37 1
    37   19   38 1
    38   20   39 1
    39   20   40 1
    40   21   22 1
    41   21   23 ar
    42   23   24 ar
    43   23   41 1
    44   24   25 1
    45   25   42 1
##########                 Name:            smyd3_639
##########          Protonation:                 none
##########               SMILES:   O=C1CC2=C(C=C(Cl)C(C(=O)NC3CCN(C4=NC=CO4)CC3)=C2)N1
##########            Long Name:   NO_LONG_NAME
##########          FlexRecCode: 1
##########               Number:                 1688
##########   Ligand Source File: /proj/zinc22/users/x_andlu/OGG1/revisions/docking/targets/smyd3/db2gen/split_par
##########                 Rank:                    1
##########               Setnum:                    8
##########             Matchnum:                    3
##########                Cloud:                    1
##########        Electrostatic:           -15.600883
##########                 Gist:             0.000000
##########        Van der Waals:           -32.657509
##########  Ligand Polar Desolv:             6.700259
########## Ligand Apolar Desolv:            -0.888694
##########      Internal Energy:             0.000000
##########      Receptor Energy:             0.000000
########## Receptor Desolvation:             0.000000
########## Receptor Hydrophobic:             0.000000
##########         Total Energy:           -42.446827
##########        Ligand Charge:             0.000000
##########            Arbitrary:    +999.9990
##########        Ligand Energy:             0.000000

@<TRIPOS>MOLECULE
smyd3_639      none
   42    45     0     0     0
SMALL
USER_CHARGES

@<TRIPOS>ATOM
      1 O1         11.4208    9.6605   17.0307 O.2       1 <0>        -0.4900
      2 C1         12.1825    8.7220   16.9316 C.2       1 <0>         0.5300
      3 C2         13.2462    8.5356   15.8706 C.3       1 <0>        -0.1100
      4 C3         13.8879    7.2133   16.2246 C.ar      1 <0>        -0.1500
      5 C4         13.2272    6.7501   17.3594 C.ar      1 <0>         0.1900
      6 C5         13.6121    5.5315   17.9213 C.ar      1 <0>        -0.1400
      7 C6         14.6295    4.7963   17.3564 C.ar      1 <0>         0.0500
      8 Cl1        15.0949    3.2792   18.0601 Cl        1 <0>        -0.0100
      9 C7         15.2924    5.2704   16.2192 C.ar      1 <0>        -0.1600
     10 C8         16.3861    4.4858   15.6153 C.2       1 <0>         0.5600
     11 O2         16.2952    4.1009   14.4654 O.2       1 <0>        -0.5100
     12 N1         17.4836    4.1909   16.3399 N.am      1 <0>        -0.7200
     13 C9         18.5670    3.4068   15.7421 C.3       1 <0>         0.1400
     14 C10        19.2760    2.5989   16.8326 C.3       1 <0>        -0.1300
     15 C11        20.4444    1.8294   16.2123 C.3       1 <0>         0.0600
     16 N2         21.3809    2.7752   15.5920 N.pl3     1 <0>        -0.4400
     17 C12        22.5119    2.1255   15.1363 C.2       1 <0>         0.3700
     18 N3         23.5304    2.6919   14.5372 N.2       1 <0>        -0.5100
     19 C13        24.4398    1.7419   14.2449 C.2       1 <0>        -0.0300
     20 C14        23.9553    0.5662   14.6704 C.2       1 <0>        -0.0900
     21 O3         22.7486    0.8075   15.2280 O.3       1 <0>        -0.2100
     22 C15        20.7352    3.5291   14.5098 C.3       1 <0>         0.0800
     23 C16        19.5754    4.3494   15.0791 C.3       1 <0>        -0.1300
     24 C17        14.9065    6.4912   15.6558 C.ar      1 <0>        -0.0200
     25 N4         12.2411    7.6531   17.7431 N.am      1 <0>        -0.6600
     26 H1         13.9790    9.3410   15.9185 H         1 <0>         0.1300
     27 H2         12.7937    8.4877   14.8801 H         1 <0>         0.1300
     28 H3         13.1069    5.1622   18.8015 H         1 <0>         0.1500
     29 H4         17.5561    4.4979   17.2572 H         1 <0>         0.4000
     30 H5         18.1561    2.7287   14.9941 H         1 <0>         0.0900
     31 H6         19.6523    3.2753   17.6001 H         1 <0>         0.0800
     32 H7         18.5733    1.8955   17.2793 H         1 <0>         0.0900
     33 H8         20.0661    1.1433   15.4546 H         1 <0>         0.0600
     34 H9         20.9601    1.2643   16.9887 H         1 <0>         0.0900
     35 H10        25.3879    1.8986   13.7520 H         1 <0>         0.1900
     36 H11        24.4400   -0.3951   14.5840 H         1 <0>         0.2200
     37 H12        20.3554    2.8351   13.7600 H         1 <0>         0.0600
     38 H13        21.4619    4.1985   14.0498 H         1 <0>         0.1000
     39 H14        19.0865    4.8967   14.2731 H         1 <0>         0.0900
     40 H15        19.9564    5.0533   15.8190 H         1 <0>         0.0800
     41 H16        15.4088    6.8641   14.7755 H         1 <0>         0.1400
     42 H17        11.6611    7.5252   18.5099 H         1 <0>         0.4200
@<TRIPOS>BOND
     1    1    2 2
     2    2   25 am
     3    2    3 1
     4    3    4 1
     5    3   26 1
     6    3   27 1
     7    4   24 ar
     8    4    5 ar
     9    5    6 ar
    10    5   25 1
    11    6    7 ar
    12    6   28 1
    13    7    8 1
    14    7    9 ar
    15    9   10 1
    16    9   24 ar
    17   10   11 2
    18   10   12 am
    19   12   13 1
    20   12   29 1
    21   13   23 1
    22   13   14 1
    23   13   30 1
    24   14   15 1
    25   14   31 1
    26   14   32 1
    27   15   16 1
    28   15   33 1
    29   15   34 1
    30   16   17 1
    31   16   22 1
    32   17   21 1
    33   17   18 2
    34   18   19 1
    35   19   20 2
    36   19   35 1
    37   20   21 1
    38   20   36 1
    39   22   23 1
    40   22   37 1
    41   22   38 1
    42   23   39 1
    43   23   40 1
    44   24   41 1
    45   25   42 1
##########                 Name:            smyd3_640
##########          Protonation:                 none
##########               SMILES:   O=C1CC2=C(C=C(Cl)C(C(=O)NC3CCN(C4=NC=CS4)CC3)=C2)N1
##########            Long Name:   NO_LONG_NAME
##########          FlexRecCode: 1
##########               Number:                 1691
##########   Ligand Source File: /proj/zinc22/users/x_andlu/OGG1/revisions/docking/targets/smyd3/db2gen/split_par
##########                 Rank:                    1
##########               Setnum:                    2
##########             Matchnum:                    7
##########                Cloud:                    1
##########        Electrostatic:           -14.260002
##########                 Gist:             0.000000
##########        Van der Waals:           -33.519184
##########  Ligand Polar Desolv:             6.527732
########## Ligand Apolar Desolv:            -1.549780
##########      Internal Energy:             0.000000
##########      Receptor Energy:             0.000000
########## Receptor Desolvation:             0.000000
########## Receptor Hydrophobic:             0.000000
##########         Total Energy:           -42.801231
##########        Ligand Charge:             0.000000
##########            Arbitrary:    +999.9990
##########        Ligand Energy:             0.000000

@<TRIPOS>MOLECULE
smyd3_640      none
   42    45     0     0     0
SMALL
USER_CHARGES

@<TRIPOS>ATOM
      1 O1         11.4485    9.6394   16.9340 O.2       1 <0>        -0.4900
      2 C1         12.2211    8.7082   16.8508 C.2       1 <0>         0.5300
      3 C2         13.2866    8.5160   15.7926 C.3       1 <0>        -0.1100
      4 C3         13.9429    7.2069   16.1683 C.ar      1 <0>        -0.1500
      5 C4         13.2876    6.7554   17.3108 C.ar      1 <0>         0.1900
      6 C5         13.6860    5.5506   17.8927 C.ar      1 <0>        -0.1400
      7 C6         14.7103    4.8167   17.3389 C.ar      1 <0>         0.0500
      8 Cl1        15.1923    3.3164   18.0672 Cl        1 <0>        -0.0100
      9 C7         15.3683    5.2794   16.1941 C.ar      1 <0>        -0.1600
     10 C8         16.4705    4.4971   15.6031 C.2       1 <0>         0.5600
     11 O2         16.3839    4.0926   14.4597 O.2       1 <0>        -0.5100
     12 N1         17.5735    4.2309   16.3304 N.am      1 <0>        -0.7200
     13 C9         18.6682    3.4542   15.7435 C.3       1 <0>         0.1400
     14 C10        18.4439    1.9648   16.0191 C.3       1 <0>        -0.1200
     15 C11        19.6209    1.1642   15.4570 C.3       1 <0>         0.0500
     16 N2         20.8675    1.6149   16.0887 N.pl3     1 <0>        -0.4400
     17 C12        21.9364    0.8229   15.6993 C.2       1 <0>         0.2300
     18 N3         22.9925    1.2521   15.0812 N.2       1 <0>        -0.5000
     19 C13        23.9170    0.3556   14.7859 C.2       1 <0>         0.0600
     20 C14        23.6280   -0.8872   15.1725 C.2       1 <0>        -0.2700
     21 S1         22.0547   -0.8618   15.9648 S.3       1 <0>         0.0900
     22 C15        21.1282    3.0307   15.7983 C.3       1 <0>         0.0700
     23 C16        19.9964    3.8870   16.3707 C.3       1 <0>        -0.1300
     24 C17        14.9691    6.4865   15.6110 C.ar      1 <0>        -0.0200
     25 N4         12.2916    7.6536   17.6798 N.am      1 <0>        -0.6600
     26 H1         14.0105    9.3301   15.8269 H         1 <0>         0.1300
     27 H2         12.8345    8.4467   14.8032 H         1 <0>         0.1300
     28 H3         13.1852    5.1905   18.7793 H         1 <0>         0.1500
     29 H4         17.6425    4.5536   17.2425 H         1 <0>         0.4000
     30 H5         18.7008    3.6247   14.6674 H         1 <0>         0.0900
     31 H6         17.5207    1.6407   15.5387 H         1 <0>         0.0900
     32 H7         18.3725    1.8003   17.0943 H         1 <0>         0.0900
     33 H8         19.6833    1.3181   14.3796 H         1 <0>         0.0600
     34 H9         19.4712    0.1046   15.6642 H         1 <0>         0.0900
     35 H10        24.8327    0.6089   14.2724 H         1 <0>         0.1800
     36 H11        24.2500   -1.7578   15.0259 H         1 <0>         0.1800
     37 H12        22.0733    3.3266   16.2534 H         1 <0>         0.1000
     38 H13        21.1834    3.1758   14.7194 H         1 <0>         0.0500
     39 H14        20.1821    4.9362   16.1413 H         1 <0>         0.0800
     40 H15        19.9492    3.7529   17.4513 H         1 <0>         0.0800
     41 H16        15.4670    6.8503   14.7244 H         1 <0>         0.1400
     42 H17        11.7130    7.5320   18.4489 H         1 <0>         0.4200
@<TRIPOS>BOND
     1    1    2 2
     2    2   25 am
     3    2    3 1
     4    3    4 1
     5    3   26 1
     6    3   27 1
     7    4   24 ar
     8    4    5 ar
     9    5    6 ar
    10    5   25 1
    11    6    7 ar
    12    6   28 1
    13    7    8 1
    14    7    9 ar
    15    9   10 1
    16    9   24 ar
    17   10   11 2
    18   10   12 am
    19   12   13 1
    20   12   29 1
    21   13   23 1
    22   13   14 1
    23   13   30 1
    24   14   15 1
    25   14   31 1
    26   14   32 1
    27   15   16 1
    28   15   33 1
    29   15   34 1
    30   16   17 1
    31   16   22 1
    32   17   21 1
    33   17   18 2
    34   18   19 1
    35   19   20 2
    36   19   35 1
    37   20   21 1
    38   20   36 1
    39   22   23 1
    40   22   37 1
    41   22   38 1
    42   23   39 1
    43   23   40 1
    44   24   41 1
    45   25   42 1
##########                 Name:            smyd3_641
##########          Protonation:                 none
##########               SMILES:   O=C1CC2=CC(C(=O)NC3CCN(C4=CN=CS4)CC3)=C(Cl)C=C2N1
##########            Long Name:   NO_LONG_NAME
##########          FlexRecCode: 1
##########               Number:                 1694
##########   Ligand Source File: /proj/zinc22/users/x_andlu/OGG1/revisions/docking/targets/smyd3/db2gen/split_par
##########                 Rank:                    1
##########               Setnum:                   27
##########             Matchnum:                   11
##########                Cloud:                    1
##########        Electrostatic:           -13.902340
##########                 Gist:             0.000000
##########        Van der Waals:           -35.955448
##########  Ligand Polar Desolv:             6.527628
########## Ligand Apolar Desolv:            -1.459122
##########      Internal Energy:             0.000000
##########      Receptor Energy:             0.000000
########## Receptor Desolvation:             0.000000
########## Receptor Hydrophobic:             0.000000
##########         Total Energy:           -44.789284
##########        Ligand Charge:             0.000000
##########            Arbitrary:    +999.9990
##########        Ligand Energy:             0.000000

@<TRIPOS>MOLECULE
smyd3_641      none
   42    45     0     0     0
SMALL
USER_CHARGES

@<TRIPOS>ATOM
      1 O1         11.5906    9.8988   17.1224 O.2       1 <0>        -0.4900
      2 C1         12.2751    8.9041   17.0094 C.2       1 <0>         0.5300
      3 C2         13.3198    8.6481   15.9440 C.3       1 <0>        -0.1100
      4 C3         13.8538    7.2739   16.2783 C.ar      1 <0>        -0.1500
      5 C4         14.8103    6.4806   15.6977 C.ar      1 <0>        -0.0200
      6 C5         15.0973    5.2245   16.2432 C.ar      1 <0>        -0.1600
      7 C6         16.1239    4.3632   15.6263 C.2       1 <0>         0.5600
      8 O2         16.0016    4.0033   14.4712 O.2       1 <0>        -0.5100
      9 N1         17.1947    3.9708   16.3446 N.am      1 <0>        -0.7200
     10 C7         18.2111    3.1107   15.7338 C.3       1 <0>         0.1500
     11 C8         17.5675    1.7946   15.2886 C.3       1 <0>        -0.1300
     12 C9         18.6451    0.8765   14.7071 C.3       1 <0>         0.0600
     13 N2         19.6726    0.6202   15.7242 N.pl3     1 <0>        -0.4400
     14 C10        20.6023   -0.3186   15.2712 C.2       1 <0>        -0.0000
     15 C11        20.3583   -1.3157   14.4063 C.2       1 <0>        -0.0100
     16 N3         21.3900   -2.0838   14.1191 N.2       1 <0>        -0.4400
     17 C12        22.5136   -1.8034   14.6903 C.2       1 <0>         0.0400
     18 S1         22.3026   -0.3966   15.7294 S.3       1 <0>         0.0400
     19 C13        20.3374    1.8641   16.1327 C.3       1 <0>         0.0500
     20 C14        19.3104    2.8117   16.7569 C.3       1 <0>        -0.1200
     21 C15        14.3994    4.7893   17.3744 C.ar      1 <0>         0.0500
     22 Cl1        14.7418    3.2297   18.0558 Cl        1 <0>        -0.0100
     23 C16        13.4448    5.5961   17.9521 C.ar      1 <0>        -0.1400
     24 C17        13.1585    6.8491   17.4080 C.ar      1 <0>         0.1900
     25 N4         12.2482    7.8227   17.8059 N.am      1 <0>        -0.6600
     26 H1         14.1148    9.3915   16.0020 H         1 <0>         0.1300
     27 H2         12.8643    8.6507   14.9538 H         1 <0>         0.1300
     28 H3         15.3403    6.8245   14.8217 H         1 <0>         0.1400
     29 H4         17.2923    4.2579   17.2660 H         1 <0>         0.4000
     30 H5         18.6447    3.6156   14.8704 H         1 <0>         0.0900
     31 H6         17.1002    1.3098   16.1458 H         1 <0>         0.0800
     32 H7         16.8132    1.9973   14.5284 H         1 <0>         0.0800
     33 H8         19.1024    1.3560   13.8416 H         1 <0>         0.0500
     34 H9         18.1923   -0.0671   14.4022 H         1 <0>         0.0900
     35 H10        19.3816   -1.4780   13.9748 H         1 <0>         0.1700
     36 H11        23.4380   -2.3436   14.5500 H         1 <0>         0.2000
     37 H12        20.7868    2.3391   15.2607 H         1 <0>         0.0600
     38 H13        21.1139    1.6378   16.8635 H         1 <0>         0.0900
     39 H14        19.8013    3.7411   17.0457 H         1 <0>         0.0800
     40 H15        18.8707    2.3430   17.6371 H         1 <0>         0.0800
     41 H16        12.9122    5.2561   18.8279 H         1 <0>         0.1500
     42 H17        11.6602    7.7309   18.5718 H         1 <0>         0.4200
@<TRIPOS>BOND
     1    1    2 2
     2    2   25 am
     3    2    3 1
     4    3    4 1
     5    3   26 1
     6    3   27 1
     7    4   24 ar
     8    4    5 ar
     9    5    6 ar
    10    5   28 1
    11    6    7 1
    12    6   21 ar
    13    7    8 2
    14    7    9 am
    15    9   10 1
    16    9   29 1
    17   10   20 1
    18   10   11 1
    19   10   30 1
    20   11   12 1
    21   11   31 1
    22   11   32 1
    23   12   13 1
    24   12   33 1
    25   12   34 1
    26   13   14 1
    27   13   19 1
    28   14   18 1
    29   14   15 2
    30   15   16 1
    31   15   35 1
    32   16   17 2
    33   17   18 1
    34   17   36 1
    35   19   20 1
    36   19   37 1
    37   19   38 1
    38   20   39 1
    39   20   40 1
    40   21   22 1
    41   21   23 ar
    42   23   24 ar
    43   23   41 1
    44   24   25 1
    45   25   42 1
##########                 Name:            smyd3_642
##########          Protonation:                 none
##########               SMILES:   O=C1CC2=CC(C(=O)NC3CCN(C4=NN=CS4)CC3)=C(Cl)C=C2N1
##########            Long Name:   NO_LONG_NAME
##########          FlexRecCode: 1
##########               Number:                 1697
##########   Ligand Source File: /proj/zinc22/users/x_andlu/OGG1/revisions/docking/targets/smyd3/db2gen/split_par
##########                 Rank:                    1
##########               Setnum:                    2
##########             Matchnum:                    8
##########                Cloud:                    1
##########        Electrostatic:           -14.794571
##########                 Gist:             0.000000
##########        Van der Waals:           -33.890018
##########  Ligand Polar Desolv:             6.824439
########## Ligand Apolar Desolv:            -1.420734
##########      Internal Energy:             0.000000
##########      Receptor Energy:             0.000000
########## Receptor Desolvation:             0.000000
########## Receptor Hydrophobic:             0.000000
##########         Total Energy:           -43.280884
##########        Ligand Charge:             0.000000
##########            Arbitrary:    +999.9990
##########        Ligand Energy:             0.000000

@<TRIPOS>MOLECULE
smyd3_642      none
   41    44     0     0     0
SMALL
USER_CHARGES

@<TRIPOS>ATOM
      1 O1         11.4928    9.6530   17.0109 O.2       1 <0>        -0.4900
      2 C1         12.2563    8.7158   16.9130 C.2       1 <0>         0.5300
      3 C2         13.3247    8.5334   15.8562 C.3       1 <0>        -0.1100
      4 C3         13.9665    7.2109   16.2095 C.ar      1 <0>        -0.1500
      5 C4         14.9882    6.4916   15.6436 C.ar      1 <0>        -0.0200
      6 C5         15.3731    5.2695   16.2056 C.ar      1 <0>        -0.1600
      7 C6         16.4707    4.4880   15.6049 C.2       1 <0>         0.5600
      8 O2         16.3857    4.1060   14.4537 O.2       1 <0>        -0.5100
      9 N1         17.5675    4.1975   16.3321 N.am      1 <0>        -0.7200
     10 C7         18.6574    3.4214   15.7354 C.3       1 <0>         0.1400
     11 C8         18.4180    1.9293   15.9824 C.3       1 <0>        -0.1300
     12 C9         19.5896    1.1279   15.4105 C.3       1 <0>         0.0600
     13 N2         20.8376    1.5551   16.0558 N.pl3     1 <0>        -0.4400
     14 C10        21.9014    0.7598   15.6561 C.2       1 <0>         0.2200
     15 N3         22.9787    1.1662   15.0473 N.2       1 <0>        -0.3100
     16 N4         23.8502    0.3008   14.7611 N.2       1 <0>        -0.2400
     17 C11        23.6112   -0.9293   15.0806 C.2       1 <0>        -0.0100
     18 S1         22.0357   -0.9866   15.8738 S.3       1 <0>         0.0700
     19 C12        21.1130    2.9733   15.7929 C.3       1 <0>         0.0700
     20 C13        19.9869    3.8298   16.3761 C.3       1 <0>        -0.1300
     21 C14        14.7056    4.7918   17.3382 C.ar      1 <0>         0.0500
     22 Cl1        15.1697    3.2733   18.0401 Cl        1 <0>        -0.0100
     23 C15        13.6853    5.5251   17.9012 C.ar      1 <0>        -0.1400
     24 C16        13.3012    6.7440   17.3406 C.ar      1 <0>         0.1900
     25 N5         12.3125    7.6450   17.7221 N.am      1 <0>        -0.6600
     26 H1         14.0564    9.3396   15.9092 H         1 <0>         0.1300
     27 H2         12.8766    8.4876   14.8636 H         1 <0>         0.1300
     28 H3         15.4937    6.8674   14.7663 H         1 <0>         0.1400
     29 H4         17.6372    4.5057   17.2491 H         1 <0>         0.4000
     30 H5         18.6961    3.6124   14.6630 H         1 <0>         0.0900
     31 H6         18.3401    1.7457   17.0540 H         1 <0>         0.0800
     32 H7         17.4939    1.6230   15.4921 H         1 <0>         0.0900
     33 H8         19.6583    1.3013   14.3366 H         1 <0>         0.0600
     34 H9         19.4291    0.0662   15.5973 H         1 <0>         0.0900
     35 H10        24.2606   -1.7720   14.8951 H         1 <0>         0.2200
     36 H11        21.1746    3.1381   14.7171 H         1 <0>         0.0600
     37 H12        22.0590    3.2519   16.2573 H         1 <0>         0.1000
     38 H13        20.1837    4.8813   16.1671 H         1 <0>         0.0900
     39 H14        19.9337    3.6761   17.4539 H         1 <0>         0.0800
     40 H15        13.1770    5.1531   18.7785 H         1 <0>         0.1500
     41 H16        11.7294    7.5146   18.4862 H         1 <0>         0.4200
@<TRIPOS>BOND
     1    1    2 2
     2    2   25 am
     3    2    3 1
     4    3    4 1
     5    3   26 1
     6    3   27 1
     7    4   24 ar
     8    4    5 ar
     9    5    6 ar
    10    5   28 1
    11    6    7 1
    12    6   21 ar
    13    7    8 2
    14    7    9 am
    15    9   10 1
    16    9   29 1
    17   10   20 1
    18   10   11 1
    19   10   30 1
    20   11   12 1
    21   11   31 1
    22   11   32 1
    23   12   13 1
    24   12   33 1
    25   12   34 1
    26   13   14 1
    27   13   19 1
    28   14   18 1
    29   14   15 2
    30   15   16 1
    31   16   17 2
    32   17   18 1
    33   17   35 1
    34   19   20 1
    35   19   36 1
    36   19   37 1
    37   20   38 1
    38   20   39 1
    39   21   22 1
    40   21   23 ar
    41   23   24 ar
    42   23   40 1
    43   24   25 1
    44   25   41 1
##########                 Name:            smyd3_643
##########          Protonation:                 none
##########               SMILES:   O=C1CC2=CC(C(=O)NC3CCN(C4=NNN=N4)CC3)=C(Cl)C=C2N1
##########            Long Name:   NO_LONG_NAME
##########          FlexRecCode: 1
##########               Number:                 1703
##########   Ligand Source File: /proj/zinc22/users/x_andlu/OGG1/revisions/docking/targets/smyd3/db2gen/split_par
##########                 Rank:                    1
##########               Setnum:                    2
##########             Matchnum:                    4
##########                Cloud:                    1
##########        Electrostatic:           -15.675636
##########                 Gist:             0.000000
##########        Van der Waals:           -32.664265
##########  Ligand Polar Desolv:             6.441484
########## Ligand Apolar Desolv:            -1.229926
##########      Internal Energy:             0.000000
##########      Receptor Energy:             0.000000
########## Receptor Desolvation:             0.000000
########## Receptor Hydrophobic:             0.000000
##########         Total Energy:           -43.128345
##########        Ligand Charge:             0.000000
##########            Arbitrary:    +999.9990
##########        Ligand Energy:             0.000000

@<TRIPOS>MOLECULE
smyd3_643      none
   41    44     0     0     0
SMALL
USER_CHARGES

@<TRIPOS>ATOM
      1 O1         11.4837    9.7244   17.6945 O.2       1 <0>        -0.4900
      2 C1         12.2515    8.8121   17.4733 C.2       1 <0>         0.5300
      3 C2         13.3024    8.7657   16.3847 C.3       1 <0>        -0.1100
      4 C3         13.9590    7.4162   16.5676 C.ar      1 <0>        -0.1500
      5 C4         14.9753    6.7780   15.9033 C.ar      1 <0>        -0.0200
      6 C5         15.3781    5.5012   16.3097 C.ar      1 <0>        -0.1500
      7 C6         16.4701    4.8060   15.6022 C.2       1 <0>         0.5600
      8 O2         16.3674    4.5626   14.4153 O.2       1 <0>        -0.5100
      9 N1         17.5814    4.4407   16.2714 N.am      1 <0>        -0.7200
     10 C7         18.6658    3.7503   15.5687 C.3       1 <0>         0.1400
     11 C8         19.4003    2.8259   16.5437 C.3       1 <0>        -0.1300
     12 C9         20.5691    2.1539   15.8196 C.3       1 <0>         0.0600
     13 N2         21.4848    3.1812   15.3071 N.pl3     1 <0>        -0.4300
     14 C10        22.6290    2.6016   14.7556 C.2       1 <0>         0.3800
     15 N3         23.1820    1.4651   15.1256 N.2       1 <0>        -0.3000
     16 N4         24.2989    1.2902   14.2919 N.pl3     1 <0>        -0.2900
     17 N5         24.3461    2.3098   13.5040 N.2       1 <0>         0.0200
     18 N6         23.3653    3.1004   13.7614 N.2       1 <0>        -0.3300
     19 C11        20.8143    4.0519   14.3330 C.3       1 <0>         0.0600
     20 C12        19.6528    4.7805   15.0128 C.3       1 <0>        -0.1300
     21 C13        14.7337    4.8867   17.3885 C.ar      1 <0>         0.0500
     22 Cl1        15.2201    3.2997   17.8972 Cl        1 <0>        -0.0100
     23 C14        13.7186    5.5391   18.0516 C.ar      1 <0>        -0.1400
     24 C15        13.3168    6.8126   17.6462 C.ar      1 <0>         0.1900
     25 N7         12.3290    7.6533   18.1485 N.am      1 <0>        -0.6600
     26 H1         14.0296    9.5661   16.5209 H         1 <0>         0.1300
     27 H2         12.8372    8.8341   15.4013 H         1 <0>         0.1300
     28 H3         15.4629    7.2595   15.0686 H         1 <0>         0.1400
     29 H4         17.6651    4.6385   17.2172 H         1 <0>         0.4000
     30 H5         18.2526    3.1625   14.7490 H         1 <0>         0.0900
     31 H6         19.7791    3.4092   17.3829 H         1 <0>         0.0800
     32 H7         18.7129    2.0636   16.9103 H         1 <0>         0.0900
     33 H8         20.1884    1.5597   14.9888 H         1 <0>         0.0500
     34 H9         21.1028    1.5059   16.5147 H         1 <0>         0.1000
     35 H10        24.9197    0.5451   14.3084 H         1 <0>         0.4700
     36 H11        20.4324    3.4489   13.5092 H         1 <0>         0.0600
     37 H12        21.5261    4.7824   13.9485 H         1 <0>         0.1000
     38 H13        19.1457    5.4148   14.2856 H         1 <0>         0.0900
     39 H14        20.0355    5.3946   15.8279 H         1 <0>         0.0800
     40 H15        13.2282    5.0613   18.8868 H         1 <0>         0.1500
     41 H16        11.7602    7.4282   18.9013 H         1 <0>         0.4200
@<TRIPOS>BOND
     1    1    2 2
     2    2   25 am
     3    2    3 1
     4    3    4 1
     5    3   26 1
     6    3   27 1
     7    4   24 ar
     8    4    5 ar
     9    5    6 ar
    10    5   28 1
    11    6    7 1
    12    6   21 ar
    13    7    8 2
    14    7    9 am
    15    9   10 1
    16    9   29 1
    17   10   20 1
    18   10   11 1
    19   10   30 1
    20   11   12 1
    21   11   31 1
    22   11   32 1
    23   12   13 1
    24   12   33 1
    25   12   34 1
    26   13   14 1
    27   13   19 1
    28   14   18 1
    29   14   15 2
    30   15   16 1
    31   16   17 1
    32   16   35 1
    33   17   18 2
    34   19   20 1
    35   19   36 1
    36   19   37 1
    37   20   38 1
    38   20   39 1
    39   21   22 1
    40   21   23 ar
    41   23   24 ar
    42   23   40 1
    43   24   25 1
    44   25   41 1
##########                 Name:            smyd3_644
##########          Protonation:                 none
##########               SMILES:   CCS(=O)(=O)N1CCC(NC(=O)C2=CC3=C(C=C2Cl)NC(=O)C3)CC1
##########            Long Name:   NO_LONG_NAME
##########          FlexRecCode: 1
##########               Number:                 1709
##########   Ligand Source File: /proj/zinc22/users/x_andlu/OGG1/revisions/docking/targets/smyd3/db2gen/split_par
##########                 Rank:                    1
##########               Setnum:                   39
##########             Matchnum:                    8
##########                Cloud:                    1
##########        Electrostatic:           -18.871445
##########                 Gist:             0.000000
##########        Van der Waals:           -35.959782
##########  Ligand Polar Desolv:             8.490209
########## Ligand Apolar Desolv:            -0.996496
##########      Internal Energy:             0.000000
##########      Receptor Energy:             0.000000
########## Receptor Desolvation:             0.000000
########## Receptor Hydrophobic:             0.000000
##########         Total Energy:           -47.337517
##########        Ligand Charge:             0.000000
##########            Arbitrary:    +999.9990
##########        Ligand Energy:             0.000000

@<TRIPOS>MOLECULE
smyd3_644      none
   45    47     0     0     0
SMALL
USER_CHARGES

@<TRIPOS>ATOM
      1 C1         22.7006   -2.0924   15.7898 C.3       1 <0>        -0.1500
      2 C2         22.0287   -0.8036   15.3120 C.3       1 <0>        -0.6300
      3 S1         20.2989   -0.7851   15.8577 S.o2      1 <0>         2.6100
      4 O1         20.2225   -0.8465   17.2753 O.2       1 <0>        -0.9500
      5 O2         19.5101   -1.6422   15.0437 O.2       1 <0>        -0.9500
      6 N1         19.7644    0.7375   15.4856 N.pl3     1 <0>        -1.0000
      7 C3         20.4083    1.9210   16.0718 C.3       1 <0>         0.1200
      8 C4         19.3350    2.7863   16.7395 C.3       1 <0>        -0.1400
      9 C5         18.2379    3.1069   15.7219 C.3       1 <0>         0.1500
     10 N2         17.2263    3.9620   16.3478 N.am      1 <0>        -0.7300
     11 C6         16.1586    4.3744   15.6362 C.2       1 <0>         0.5600
     12 O3         16.0350    4.0368   14.4746 O.2       1 <0>        -0.5100
     13 C7         15.1400    5.2356   16.2665 C.ar      1 <0>        -0.1600
     14 C8         14.8725    6.5065   15.7473 C.ar      1 <0>        -0.0200
     15 C9         13.9235    7.3001   16.3410 C.ar      1 <0>        -0.1500
     16 C10        13.2178    6.8604   17.4579 C.ar      1 <0>         0.1900
     17 C11        13.4850    5.5919   17.9761 C.ar      1 <0>        -0.1400
     18 C12        14.4347    4.7873   17.3886 C.ar      1 <0>         0.0500
     19 Cl1        14.7579    3.2114   18.0414 Cl        1 <0>        -0.0100
     20 N3         12.3229    7.8395   17.8767 N.am      1 <0>        -0.6600
     21 C13        12.3635    8.9351   17.1006 C.2       1 <0>         0.5300
     22 O4         11.6921    9.9365   17.2324 O.2       1 <0>        -0.4900
     23 C14        13.4095    8.6882   16.0343 C.3       1 <0>        -0.1100
     24 C15        17.5842    1.8069   15.2478 C.3       1 <0>        -0.1500
     25 C16        18.6375    0.9306   14.5628 C.3       1 <0>         0.1200
     26 H1         23.7399   -2.1035   15.4619 H         1 <0>         0.0700
     27 H2         22.6624   -2.1400   16.8780 H         1 <0>         0.0700
     28 H3         22.1779   -2.9518   15.3700 H         1 <0>         0.0800
     29 H4         22.0669   -0.7557   14.2236 H         1 <0>         0.1300
     30 H5         22.5514    0.0559   15.7319 H         1 <0>         0.1300
     31 H6         20.9036    2.4935   15.2875 H         1 <0>         0.0800
     32 H7         21.1417    1.6098   16.8156 H         1 <0>         0.1000
     33 H8         19.7844    3.7138   17.0944 H         1 <0>         0.0900
     34 H9         18.9033    2.2451   17.5816 H         1 <0>         0.0700
     35 H10        18.6745    3.6260   14.8687 H         1 <0>         0.1000
     36 H11        17.3249    4.2312   17.2745 H         1 <0>         0.4000
     37 H12        15.4110    6.8620   14.8812 H         1 <0>         0.1400
     38 H13        12.9439    5.2402   18.8421 H         1 <0>         0.1500
     39 H14        11.7343    7.7412   18.6413 H         1 <0>         0.4200
     40 H15        12.9586    8.7183   15.0424 H         1 <0>         0.1300
     41 H16        14.2129    9.4209   16.1102 H         1 <0>         0.1300
     42 H17        17.1691    1.2751   16.1039 H         1 <0>         0.0700
     43 H18        16.7872    2.0373   14.5407 H         1 <0>         0.0900
     44 H19        18.9884    1.4224   13.6555 H         1 <0>         0.0800
     45 H20        18.2029   -0.0363   14.3094 H         1 <0>         0.1000
@<TRIPOS>BOND
     1    1    2 1
     2    1   26 1
     3    1   27 1
     4    1   28 1
     5    2    3 1
     6    2   29 1
     7    2   30 1
     8    3    4 2
     9    3    5 2
    10    3    6 1
    11    6   25 1
    12    6    7 1
    13    7    8 1
    14    7   31 1
    15    7   32 1
    16    8    9 1
    17    8   33 1
    18    8   34 1
    19    9   10 1
    20    9   24 1
    21    9   35 1
    22   10   11 am
    23   10   36 1
    24   11   12 2
    25   11   13 1
    26   13   18 ar
    27   13   14 ar
    28   14   15 ar
    29   14   37 1
    30   15   23 1
    31   15   16 ar
    32   16   17 ar
    33   16   20 1
    34   17   18 ar
    35   17   38 1
    36   18   19 1
    37   20   21 am
    38   20   39 1
    39   21   22 2
    40   21   23 1
    41   23   40 1
    42   23   41 1
    43   24   25 1
    44   24   42 1
    45   24   43 1
    46   25   44 1
    47   25   45 1
##########                 Name:            smyd3_645
##########          Protonation:                 none
##########               SMILES:   CNS(=O)(=O)N1CCC(NC(=O)C2=CC3=C(C=C2Cl)NC(=O)C3)CC1
##########            Long Name:   NO_LONG_NAME
##########          FlexRecCode: 1
##########               Number:                 1712
##########   Ligand Source File: /proj/zinc22/users/x_andlu/OGG1/revisions/docking/targets/smyd3/db2gen/split_par
##########                 Rank:                    1
##########               Setnum:                   36
##########             Matchnum:                    6
##########                Cloud:                    1
##########        Electrostatic:           -16.118761
##########                 Gist:             0.000000
##########        Van der Waals:           -36.412552
##########  Ligand Polar Desolv:             7.603998
########## Ligand Apolar Desolv:            -0.713858
##########      Internal Energy:             0.000000
##########      Receptor Energy:             0.000000
########## Receptor Desolvation:             0.000000
########## Receptor Hydrophobic:             0.000000
##########         Total Energy:           -45.641174
##########        Ligand Charge:             0.000000
##########            Arbitrary:    +999.9990
##########        Ligand Energy:             0.000000

@<TRIPOS>MOLECULE
smyd3_645      none
   44    46     0     0     0
SMALL
USER_CHARGES

@<TRIPOS>ATOM
      1 C1         20.4681   -1.8511   13.9658 C.3       1 <0>         0.0800
      2 N1         20.8737   -1.6267   15.3556 N.pl3     1 <0>        -1.1300
      3 S1         19.7795   -1.0437   16.4534 S.o2      1 <0>         2.7900
      4 O1         18.6523   -1.9068   16.3937 O.2       1 <0>        -0.9800
      5 O2         20.5051   -0.7946   17.6495 O.2       1 <0>        -0.9700
      6 N2         19.2687    0.4315   15.9006 N.pl3     1 <0>        -1.0100
      7 C2         19.9714    1.6613   16.2908 C.3       1 <0>         0.1200
      8 C3         18.9622    2.6454   16.8795 C.3       1 <0>        -0.1400
      9 C4         17.8224    2.8620   15.8816 C.3       1 <0>         0.1500
     10 N3         16.8689    3.8285   16.4319 N.am      1 <0>        -0.7200
     11 C5         15.7771    4.1769   15.7227 C.2       1 <0>         0.5600
     12 O3         15.5835    3.6888   14.6260 O.2       1 <0>        -0.5100
     13 C6         14.8171    5.1503   16.2769 C.ar      1 <0>        -0.1600
     14 C7         14.5530    6.3445   15.5980 C.ar      1 <0>        -0.0200
     15 C8         13.6585    7.2434   16.1217 C.ar      1 <0>        -0.1500
     16 C9         13.0047    6.9871   17.3241 C.ar      1 <0>         0.1900
     17 C10        13.2684    5.7953   18.0016 C.ar      1 <0>        -0.1400
     18 C11        14.1595    4.8835   17.4826 C.ar      1 <0>         0.0500
     19 Cl1        14.4739    3.4016   18.3305 Cl        1 <0>        -0.0100
     20 N4         12.1546    8.0410   17.6428 N.am      1 <0>        -0.6600
     21 C12        12.1841    9.0184   16.7217 C.2       1 <0>         0.5300
     22 O4         11.5459   10.0493   16.7451 O.2       1 <0>        -0.4900
     23 C13        13.1632    8.5913   15.6489 C.3       1 <0>        -0.1100
     24 C14        17.1091    1.5328   15.6230 C.3       1 <0>        -0.1400
     25 C15        18.1007    0.5357   15.0155 C.3       1 <0>         0.1200
     26 H1         21.3157   -2.2337   13.3972 H         1 <0>         0.0800
     27 H2         19.6547   -2.5762   13.9373 H         1 <0>         0.0600
     28 H3         20.1321   -0.9109   13.5290 H         1 <0>         0.0700
     29 H4         21.7830   -1.8195   15.6327 H         1 <0>         0.4200
     30 H5         20.7302    1.4275   17.0376 H         1 <0>         0.1000
     31 H6         20.4431    2.1063   15.4146 H         1 <0>         0.0700
     32 H7         19.4549    3.5967   17.0811 H         1 <0>         0.0800
     33 H8         18.5608    2.2392   17.8079 H         1 <0>         0.0700
     34 H9         18.2277    3.2448   14.9450 H         1 <0>         0.1000
     35 H10        17.0234    4.2178   17.3070 H         1 <0>         0.4000
     36 H11        15.0515    6.5580   14.6641 H         1 <0>         0.1400
     37 H12        12.7676    5.5857   18.9351 H         1 <0>         0.1500
     38 H13        11.6025    8.0670   18.4399 H         1 <0>         0.4200
     39 H14        13.9888    9.2996   15.5811 H         1 <0>         0.1300
     40 H15        12.6591    8.4972   14.6870 H         1 <0>         0.1300
     41 H16        16.2828    1.6922   14.9303 H         1 <0>         0.0900
     42 H17        16.7250    1.1370   16.5632 H         1 <0>         0.0800
     43 H18        18.4167    0.8869   14.0333 H         1 <0>         0.0700
     44 H19        17.6270   -0.4412   14.9191 H         1 <0>         0.1000
@<TRIPOS>BOND
     1    1    2 1
     2    1   26 1
     3    1   27 1
     4    1   28 1
     5    2    3 1
     6    2   29 1
     7    3    4 2
     8    3    5 2
     9    3    6 1
    10    6   25 1
    11    6    7 1
    12    7    8 1
    13    7   30 1
    14    7   31 1
    15    8    9 1
    16    8   32 1
    17    8   33 1
    18    9   10 1
    19    9   24 1
    20    9   34 1
    21   10   11 am
    22   10   35 1
    23   11   12 2
    24   11   13 1
    25   13   18 ar
    26   13   14 ar
    27   14   15 ar
    28   14   36 1
    29   15   23 1
    30   15   16 ar
    31   16   17 ar
    32   16   20 1
    33   17   18 ar
    34   17   37 1
    35   18   19 1
    36   20   21 am
    37   20   38 1
    38   21   22 2
    39   21   23 1
    40   23   39 1
    41   23   40 1
    42   24   25 1
    43   24   41 1
    44   24   42 1
    45   25   43 1
    46   25   44 1
##########                 Name:            smyd3_646
##########          Protonation:                 none
##########               SMILES:   O=C1CC2=CC(C(=O)NC3CC[NH+](C4CCCC4)CC3)=C(Cl)C=C2N1
##########            Long Name:   NO_LONG_NAME
##########          FlexRecCode: 1
##########               Number:                 1713
##########   Ligand Source File: /proj/zinc22/users/x_andlu/OGG1/revisions/docking/targets/smyd3/db2gen/split_par
##########                 Rank:                    1
##########               Setnum:                    4
##########             Matchnum:                    7
##########                Cloud:                    1
##########        Electrostatic:           -21.894136
##########                 Gist:             0.000000
##########        Van der Waals:           -30.096287
##########  Ligand Polar Desolv:             9.635118
########## Ligand Apolar Desolv:            -2.059551
##########      Internal Energy:             0.000000
##########      Receptor Energy:             0.000000
########## Receptor Desolvation:             0.000000
########## Receptor Hydrophobic:             0.000000
##########         Total Energy:           -44.414860
##########        Ligand Charge:             1.000000
##########            Arbitrary:    +999.9990
##########        Ligand Energy:             0.000000

@<TRIPOS>MOLECULE
smyd3_646      none
   50    53     0     0     0
SMALL
USER_CHARGES

@<TRIPOS>ATOM
      1 O1         11.4971    9.3397   17.5769 O.2       1 <0>        -0.4800
      2 C1         12.3180    8.4802   17.3356 C.2       1 <0>         0.5300
      3 C2         13.3916    8.5364   16.2698 C.3       1 <0>        -0.1100
      4 C3         14.1171    7.2177   16.4116 C.ar      1 <0>        -0.1500
      5 C4         15.1800    6.6638   15.7444 C.ar      1 <0>        -0.0200
      6 C5         15.6436    5.3944   16.1068 C.ar      1 <0>        -0.1700
      7 C6         16.7860    4.7895   15.3959 C.2       1 <0>         0.5700
      8 O2         16.7208    4.5916   14.1979 O.2       1 <0>        -0.5000
      9 N1         17.9018    4.4560   16.0743 N.am      1 <0>        -0.7300
     10 C7         19.0362    3.8552   15.3683 C.3       1 <0>         0.1400
     11 C8         19.9774    4.9594   14.8783 C.3       1 <0>        -0.1600
     12 C9         21.1979    4.3224   14.2103 C.3       1 <0>        -0.0000
     13 N2         21.9013    3.4715   15.1777 N.4       1 <0>        -0.3800
     14 H1         22.1570    4.0213   15.9841 H         1 <0>         0.4200
     15 C10        23.1141    2.9244   14.5552 C.3       1 <0>         0.0100
     16 C11        24.1366    4.0505   14.2622 C.3       1 <0>        -0.1400
     17 C12        25.4976    3.3261   14.2112 C.3       1 <0>        -0.1300
     18 C13        25.3385    2.0332   15.0302 C.3       1 <0>        -0.1300
     19 C14        23.8863    2.0171   15.5505 C.3       1 <0>        -0.1400
     20 C15        21.0286    2.3686   15.5978 C.3       1 <0>        -0.0000
     21 C16        19.8016    2.9303   16.3192 C.3       1 <0>        -0.1600
     22 C17        15.0122    4.7009   17.1445 C.ar      1 <0>         0.0600
     23 Cl1        15.5741    3.1223   17.5980 Cl        1 <0>        -0.0100
     24 C18        13.9497    5.2691   17.8110 C.ar      1 <0>        -0.1400
     25 C19        13.4871    6.5353   17.4496 C.ar      1 <0>         0.2000
     26 N3         12.4450    7.2996   17.9639 N.am      1 <0>        -0.6600
     27 H2         14.0711    9.3683   16.4553 H         1 <0>         0.1300
     28 H3         12.9434    8.6214   15.2799 H         1 <0>         0.1300
     29 H4         15.6574    7.2059   14.9415 H         1 <0>         0.1400
     30 H5         17.9538    4.6139   17.0299 H         1 <0>         0.4000
     31 H6         18.6725    3.2814   14.5159 H         1 <0>         0.1100
     32 H7         20.3005    5.5647   15.7252 H         1 <0>         0.0900
     33 H8         19.4556    5.5893   14.1579 H         1 <0>         0.1200
     34 H9         21.8699    5.1057   13.8600 H         1 <0>         0.1400
     35 H10        20.8732    3.7174   13.3636 H         1 <0>         0.1300
     36 H11        22.8695    2.3781   13.6443 H         1 <0>         0.1500
     37 H12        24.1283    4.7909   15.0621 H         1 <0>         0.0900
     38 H13        23.9196    4.5228   13.3042 H         1 <0>         0.0900
     39 H14        25.7539    3.0852   13.1795 H         1 <0>         0.0800
     40 H15        26.2717    3.9543   14.6517 H         1 <0>         0.0800
     41 H16        25.5175    1.1649   14.3961 H         1 <0>         0.0800
     42 H17        26.0353    2.0341   15.8684 H         1 <0>         0.0800
     43 H18        23.4856    1.0036   15.5319 H         1 <0>         0.0900
     44 H19        23.8379    2.4270   16.5594 H         1 <0>         0.0900
     45 H20        20.7080    1.8055   14.7213 H         1 <0>         0.1300
     46 H21        21.5757    1.7096   16.2719 H         1 <0>         0.1300
     47 H22        20.1211    3.4936   17.1960 H         1 <0>         0.0900
     48 H23        19.1540    2.1101   16.6287 H         1 <0>         0.1200
     49 H24        13.4694    4.7306   18.6145 H         1 <0>         0.1500
     50 H25        11.8743    7.0125   18.6938 H         1 <0>         0.4200
@<TRIPOS>BOND
     1    1    2 2
     2    2   26 am
     3    2    3 1
     4    3    4 1
     5    3   27 1
     6    3   28 1
     7    4   25 ar
     8    4    5 ar
     9    5    6 ar
    10    5   29 1
    11    6    7 1
    12    6   22 ar
    13    7    8 2
    14    7    9 am
    15    9   10 1
    16    9   30 1
    17   10   21 1
    18   10   11 1
    19   10   31 1
    20   11   12 1
    21   11   32 1
    22   11   33 1
    23   12   13 1
    24   12   34 1
    25   12   35 1
    26   13   14 1
    27   13   15 1
    28   13   20 1
    29   15   19 1
    30   15   16 1
    31   15   36 1
    32   16   17 1
    33   16   37 1
    34   16   38 1
    35   17   18 1
    36   17   39 1
    37   17   40 1
    38   18   19 1
    39   18   41 1
    40   18   42 1
    41   19   43 1
    42   19   44 1
    43   20   21 1
    44   20   45 1
    45   20   46 1
    46   21   47 1
    47   21   48 1
    48   22   23 1
    49   22   24 ar
    50   24   25 ar
    51   24   49 1
    52   25   26 1
    53   26   50 1
##########                 Name:            smyd3_647
##########          Protonation:                 none
##########               SMILES:   O=C1CC2=CC(C(=O)NC3CC[NH+](C4CCOC4)CC3)=C(Cl)C=C2N1
##########            Long Name:   NO_LONG_NAME
##########          FlexRecCode: 1
##########               Number:                 1719
##########   Ligand Source File: /proj/zinc22/users/x_andlu/OGG1/revisions/docking/targets/smyd3/db2gen/split_par
##########                 Rank:                    1
##########               Setnum:                    4
##########             Matchnum:                   11
##########                Cloud:                    1
##########        Electrostatic:           -22.886848
##########                 Gist:             0.000000
##########        Van der Waals:           -30.173065
##########  Ligand Polar Desolv:            10.684756
########## Ligand Apolar Desolv:            -1.584338
##########      Internal Energy:             0.000000
##########      Receptor Energy:             0.000000
########## Receptor Desolvation:             0.000000
########## Receptor Hydrophobic:             0.000000
##########         Total Energy:           -43.959496
##########        Ligand Charge:             1.000000
##########            Arbitrary:    +999.9990
##########        Ligand Energy:             0.000000

@<TRIPOS>MOLECULE
smyd3_647      none
   48    51     0     0     0
SMALL
USER_CHARGES

@<TRIPOS>ATOM
      1 O1         11.4887    9.4381   17.7656 O.2       1 <0>        -0.4800
      2 C1         12.2907    8.5692   17.4961 C.2       1 <0>         0.5300
      3 C2         13.3829    8.6468   16.4505 C.3       1 <0>        -0.1100
      4 C3         14.0712    7.3039   16.5403 C.ar      1 <0>        -0.1500
      5 C4         15.1300    6.7537   15.8637 C.ar      1 <0>        -0.0200
      6 C5         15.5543    5.4566   16.1722 C.ar      1 <0>        -0.1700
      7 C6         16.6920    4.8555   15.4506 C.2       1 <0>         0.5700
      8 O2         16.6413    4.7161   14.2437 O.2       1 <0>        -0.5000
      9 N1         17.7877    4.4609   16.1292 N.am      1 <0>        -0.7300
     10 C7         18.9174    3.8641   15.4125 C.3       1 <0>         0.1400
     11 C8         19.6412    2.8749   16.3306 C.3       1 <0>        -0.1600
     12 C9         20.8648    2.3135   15.6030 C.3       1 <0>        -0.0000
     13 N2         21.7740    3.4103   15.2494 N.4       1 <0>        -0.3700
     14 H1         22.0306    3.9155   16.0843 H         1 <0>         0.4200
     15 C10        22.9822    2.8594   14.6211 C.3       1 <0>        -0.0200
     16 C11        24.0626    3.9581   14.4268 C.3       1 <0>        -0.1700
     17 C12        25.3748    3.1461   14.4746 C.3       1 <0>         0.0500
     18 O3         25.0981    1.9160   15.1542 O.3       1 <0>        -0.3600
     19 C13        23.7269    1.8891   15.5813 C.3       1 <0>         0.0500
     20 C14        21.1105    4.3247   14.3122 C.3       1 <0>        -0.0000
     21 C15        19.8964    4.9634   14.9901 C.3       1 <0>        -0.1600
     22 C16        14.8880    4.7321   17.1659 C.ar      1 <0>         0.0600
     23 Cl1        15.4011    3.1192   17.5522 Cl        1 <0>        -0.0100
     24 C17        13.8300    5.2966   17.8427 C.ar      1 <0>        -0.1400
     25 C18        13.4067    6.5904   17.5350 C.ar      1 <0>         0.2000
     26 N3         12.3765    7.3573   18.0692 N.am      1 <0>        -0.6600
     27 H2         14.0806    9.4505   16.6857 H         1 <0>         0.1300
     28 H3         12.9531    8.7905   15.4591 H         1 <0>         0.1300
     29 H4         15.6344    7.3199   15.0948 H         1 <0>         0.1400
     30 H5         17.8281    4.5720   17.0918 H         1 <0>         0.4000
     31 H6         18.5531    3.3410   14.5283 H         1 <0>         0.1100
     32 H7         18.9666    2.0593   16.5909 H         1 <0>         0.1200
     33 H8         19.9606    3.3866   17.2385 H         1 <0>         0.1000
     34 H9         20.5441    1.8012   14.6960 H         1 <0>         0.1400
     35 H10        21.3820    1.6091   16.2543 H         1 <0>         0.1400
     36 H11        22.7438    2.3715   13.6761 H         1 <0>         0.1600
     37 H12        24.0266    4.6853   15.2378 H         1 <0>         0.1000
     38 H13        23.9460    4.4503   13.4612 H         1 <0>         0.1100
     39 H14        25.7189    2.9395   13.4612 H         1 <0>         0.0900
     40 H15        26.1362    3.7057   15.0180 H         1 <0>         0.0900
     41 H16        23.3217    0.8815   15.4892 H         1 <0>         0.1100
     42 H17        23.6445    2.2367   16.6111 H         1 <0>         0.0800
     43 H18        21.8094    5.1046   14.0101 H         1 <0>         0.1300
     44 H19        20.7846    3.7694   13.4327 H         1 <0>         0.1300
     45 H20        19.4041    5.6406   14.2922 H         1 <0>         0.1200
     46 H21        20.2205    5.5197   15.8696 H         1 <0>         0.0900
     47 H22        13.3227    4.7338   18.6123 H         1 <0>         0.1500
     48 H23        11.7867    7.0515   18.7760 H         1 <0>         0.4200
@<TRIPOS>BOND
     1    1    2 2
     2    2   26 am
     3    2    3 1
     4    3    4 1
     5    3   27 1
     6    3   28 1
     7    4   25 ar
     8    4    5 ar
     9    5    6 ar
    10    5   29 1
    11    6    7 1
    12    6   22 ar
    13    7    8 2
    14    7    9 am
    15    9   10 1
    16    9   30 1
    17   10   21 1
    18   10   11 1
    19   10   31 1
    20   11   12 1
    21   11   32 1
    22   11   33 1
    23   12   13 1
    24   12   34 1
    25   12   35 1
    26   13   14 1
    27   13   15 1
    28   13   20 1
    29   15   19 1
    30   15   16 1
    31   15   36 1
    32   16   17 1
    33   16   37 1
    34   16   38 1
    35   17   18 1
    36   17   39 1
    37   17   40 1
    38   18   19 1
    39   19   41 1
    40   19   42 1
    41   20   21 1
    42   20   43 1
    43   20   44 1
    44   21   45 1
    45   21   46 1
    46   22   23 1
    47   22   24 ar
    48   24   25 ar
    49   24   47 1
    50   25   26 1
    51   26   48 1
##########                 Name:            smyd3_648
##########          Protonation:                 none
##########               SMILES:   CNC(=O)C[NH+]1CCC(NC(=O)C2=CC3=C(C=C2Cl)NC(=O)C3)CC1
##########            Long Name:   NO_LONG_NAME
##########          FlexRecCode: 1
##########               Number:                 1723
##########   Ligand Source File: /proj/zinc22/users/x_andlu/OGG1/revisions/docking/targets/smyd3/db2gen/split_par
##########                 Rank:                    1
##########               Setnum:                    4
##########             Matchnum:                   10
##########                Cloud:                    1
##########        Electrostatic:           -28.334101
##########                 Gist:             0.000000
##########        Van der Waals:           -33.925114
##########  Ligand Polar Desolv:             9.219015
########## Ligand Apolar Desolv:            -1.478388
##########      Internal Energy:             0.000000
##########      Receptor Energy:             0.000000
########## Receptor Desolvation:             0.000000
########## Receptor Hydrophobic:             0.000000
##########         Total Energy:           -54.518585
##########        Ligand Charge:             1.000000
##########            Arbitrary:    +999.9990
##########        Ligand Energy:             0.000000

@<TRIPOS>MOLECULE
smyd3_648      none
   47    49     0     0     0
SMALL
USER_CHARGES

@<TRIPOS>ATOM
      1 C1         21.4547   -3.6376   16.3254 C.3       1 <0>         0.0800
      2 N1         21.6327   -2.3103   15.7314 N.am      1 <0>        -0.7100
      3 C2         21.2096   -1.2143   16.3917 C.2       1 <0>         0.5000
      4 O1         20.6815   -1.3267   17.4778 O.2       1 <0>        -0.5300
      5 C3         21.3927    0.1511   15.7807 C.3       1 <0>        -0.0300
      6 N2         20.3146    1.0395   16.2352 N.4       1 <0>        -0.3700
      7 H1         20.1272    0.8655   17.2112 H         1 <0>         0.4300
      8 C4         20.7275    2.4370   16.0591 C.3       1 <0>        -0.0100
      9 C5         19.6415    3.3663   16.6057 C.3       1 <0>        -0.1500
     10 C6         18.3354    3.1186   15.8455 C.3       1 <0>         0.1400
     11 N3         17.2721    3.9506   16.4143 N.am      1 <0>        -0.7300
     12 C7         16.2626    4.3816   15.6323 C.2       1 <0>         0.5700
     13 O2         16.2343    4.0799   14.4548 O.2       1 <0>        -0.5100
     14 C8         15.1919    5.2194   16.2051 C.ar      1 <0>        -0.1700
     15 C9         14.9554    6.5026   15.7012 C.ar      1 <0>        -0.0200
     16 C10        13.9536    7.2719   16.2369 C.ar      1 <0>        -0.1500
     17 C11        13.1631    6.7955   17.2796 C.ar      1 <0>         0.2000
     18 C12        13.3991    5.5147   17.7823 C.ar      1 <0>        -0.1400
     19 C13        14.4015    4.7342   17.2528 C.ar      1 <0>         0.0600
     20 Cl1        14.6859    3.1432   17.8864 Cl        1 <0>        -0.0100
     21 N4         12.2242    7.7538   17.6470 N.am      1 <0>        -0.6600
     22 C14        12.3217    8.8739   16.9118 C.2       1 <0>         0.5300
     23 O3         11.6323    9.8661   17.0160 O.2       1 <0>        -0.4800
     24 C15        13.4535    8.6649   15.9282 C.3       1 <0>        -0.1100
     25 C16        17.9527    1.6412   15.9723 C.3       1 <0>        -0.1600
     26 C17        19.1022    0.7758   15.4509 C.3       1 <0>        -0.0000
     27 H2         21.8551   -4.3943   15.6509 H         1 <0>         0.0700
     28 H3         21.9835   -3.6834   17.2776 H         1 <0>         0.0700
     29 H4         20.3933   -3.8226   16.4901 H         1 <0>         0.0900
     30 H5         22.0551   -2.2204   14.8629 H         1 <0>         0.4100
     31 H6         21.3628    0.0697   14.6941 H         1 <0>         0.1600
     32 H7         22.3549    0.5606   16.0880 H         1 <0>         0.1600
     33 H8         20.8789    2.6399   14.9989 H         1 <0>         0.1300
     34 H9         21.6587    2.6106   16.5984 H         1 <0>         0.1400
     35 H10        19.9491    4.4035   16.4724 H         1 <0>         0.1200
     36 H11        19.4894    3.1644   17.6660 H         1 <0>         0.1000
     37 H12        18.4722    3.3706   14.7940 H         1 <0>         0.1100
     38 H13        17.2948    4.1914   17.3536 H         1 <0>         0.4000
     39 H14        15.5594    6.8865   14.8924 H         1 <0>         0.1400
     40 H15        12.7925    5.1346   18.5909 H         1 <0>         0.1500
     41 H16        11.5726    7.6276   18.3543 H         1 <0>         0.4200
     42 H17        14.2424    9.3991   16.0916 H         1 <0>         0.1300
     43 H18        13.0847    8.7202   14.9039 H         1 <0>         0.1300
     44 H19        17.7647    1.4025   17.0191 H         1 <0>         0.0900
     45 H20        17.0542    1.4463   15.3867 H         1 <0>         0.1200
     46 H21        19.2882    1.0141   14.4038 H         1 <0>         0.1400
     47 H22        18.8332   -0.2766   15.5415 H         1 <0>         0.1400
@<TRIPOS>BOND
     1    1    2 1
     2    1   27 1
     3    1   28 1
     4    1   29 1
     5    2    3 am
     6    2   30 1
     7    3    4 2
     8    3    5 1
     9    5    6 1
    10    5   31 1
    11    5   32 1
    12    6    7 1
    13    6   26 1
    14    6    8 1
    15    8    9 1
    16    8   33 1
    17    8   34 1
    18    9   10 1
    19    9   35 1
    20    9   36 1
    21   10   11 1
    22   10   25 1
    23   10   37 1
    24   11   12 am
    25   11   38 1
    26   12   13 2
    27   12   14 1
    28   14   19 ar
    29   14   15 ar
    30   15   16 ar
    31   15   39 1
    32   16   24 1
    33   16   17 ar
    34   17   18 ar
    35   17   21 1
    36   18   19 ar
    37   18   40 1
    38   19   20 1
    39   21   22 am
    40   21   41 1
    41   22   23 2
    42   22   24 1
    43   24   42 1
    44   24   43 1
    45   25   26 1
    46   25   44 1
    47   25   45 1
    48   26   46 1
    49   26   47 1
##########                 Name:            smyd3_649
##########          Protonation:                 none
##########               SMILES:   COC(=O)CN1CCC(NC(=O)C2=CC3=C(C=C2Cl)NC(=O)C3)CC1
##########            Long Name:   NO_LONG_NAME
##########          FlexRecCode: 1
##########               Number:                 1727
##########   Ligand Source File: /proj/zinc22/users/x_andlu/OGG1/revisions/docking/targets/smyd3/db2gen/split_par
##########                 Rank:                    1
##########               Setnum:                   54
##########             Matchnum:                    9
##########                Cloud:                    1
##########        Electrostatic:           -20.718552
##########                 Gist:             0.000000
##########        Van der Waals:           -29.444315
##########  Ligand Polar Desolv:             6.261149
########## Ligand Apolar Desolv:            -1.206935
##########      Internal Energy:             0.000000
##########      Receptor Energy:             0.000000
########## Receptor Desolvation:             0.000000
########## Receptor Hydrophobic:             0.000000
##########         Total Energy:           -45.108650
##########        Ligand Charge:             0.000000
##########            Arbitrary:    +999.9990
##########        Ligand Energy:             0.000000

@<TRIPOS>MOLECULE
smyd3_649      none
   45    47     0     0     0
SMALL
USER_CHARGES

@<TRIPOS>ATOM
      1 C1         25.8522    3.1073   16.9058 C.3       1 <0>         0.0400
      2 O1         24.7043    2.3189   16.4949 O.3       1 <0>        -0.3600
      3 C2         23.7894    2.9293   15.7256 C.2       1 <0>         0.4600
      4 O2         23.9426    4.0845   15.4062 O.2       1 <0>        -0.4900
      5 C3         22.5711    2.1741   15.2603 C.3       1 <0>         0.0600
      6 N1         21.3611    2.8431   15.7567 N.3       1 <0>        -0.5300
      7 C4         21.0776    4.0593   14.9843 C.3       1 <0>         0.0600
      8 C5         19.9009    4.8050   15.6177 C.3       1 <0>        -0.1300
      9 C6         18.6729    3.8904   15.6341 C.3       1 <0>         0.1500
     10 N2         17.5592    4.5781   16.2922 N.am      1 <0>        -0.7200
     11 C7         16.4131    4.8018   15.6191 C.2       1 <0>         0.5600
     12 O3         16.3037    4.4328   14.4658 O.2       1 <0>        -0.5100
     13 C8         15.2917    5.4944   16.2817 C.ar      1 <0>        -0.1500
     14 C9         14.7977    6.6946   15.7601 C.ar      1 <0>        -0.0200
     15 C10        13.7544    7.3312   16.3838 C.ar      1 <0>        -0.1500
     16 C11        13.1749    6.8010   17.5335 C.ar      1 <0>         0.1900
     17 C12        13.6681    5.6031   18.0540 C.ar      1 <0>        -0.1400
     18 C13        14.7106    4.9528   17.4334 C.ar      1 <0>         0.0500
     19 Cl1        15.3106    3.4602   18.0857 Cl        1 <0>        -0.0100
     20 N3         12.1435    7.6234   17.9746 N.am      1 <0>        -0.6600
     21 C14        11.9761    8.7001   17.1888 C.2       1 <0>         0.5300
     22 O4         11.1537    9.5790   17.3371 O.2       1 <0>        -0.4900
     23 C15        13.0064    8.6102   16.0832 C.3       1 <0>        -0.1100
     24 C16        19.0100    2.6102   16.4034 C.3       1 <0>        -0.1200
     25 C17        20.2125    1.9282   15.7471 C.3       1 <0>         0.0500
     26 H1         26.5116    2.4955   17.5214 H         1 <0>         0.0600
     27 H2         26.3929    3.4492   16.0232 H         1 <0>         0.1000
     28 H3         25.5139    3.9689   17.4811 H         1 <0>         0.0600
     29 H4         22.5523    2.1507   14.1707 H         1 <0>         0.1200
     30 H5         22.6066    1.1549   15.6449 H         1 <0>         0.0800
     31 H6         21.9575    4.7027   14.9840 H         1 <0>         0.0800
     32 H7         20.8261    3.7880   13.9590 H         1 <0>         0.0400
     33 H8         19.6808    5.6994   15.0351 H         1 <0>         0.0800
     34 H9         20.1570    5.0887   16.6385 H         1 <0>         0.0800
     35 H10        18.3920    3.6379   14.6117 H         1 <0>         0.0900
     36 H11        17.6466    4.8725   17.2123 H         1 <0>         0.4000
     37 H12        15.2360    7.1188   14.8689 H         1 <0>         0.1400
     38 H13        13.2268    5.1825   18.9455 H         1 <0>         0.1500
     39 H14        11.6056    7.4400   18.7607 H         1 <0>         0.4200
     40 H15        13.6815    9.4652   16.1195 H         1 <0>         0.1300
     41 H16        12.5187    8.5481   15.1105 H         1 <0>         0.1300
     42 H17        18.1532    1.9366   16.3822 H         1 <0>         0.0800
     43 H18        19.2519    2.8594   17.4365 H         1 <0>         0.0800
     44 H19        19.9649    1.6667   14.7183 H         1 <0>         0.0400
     45 H20        20.4639    1.0238   16.3012 H         1 <0>         0.0900
@<TRIPOS>BOND
     1    1    2 1
     2    1   26 1
     3    1   27 1
     4    1   28 1
     5    2    3 1
     6    3    4 2
     7    3    5 1
     8    5    6 1
     9    5   29 1
    10    5   30 1
    11    6   25 1
    12    6    7 1
    13    7    8 1
    14    7   31 1
    15    7   32 1
    16    8    9 1
    17    8   33 1
    18    8   34 1
    19    9   10 1
    20    9   24 1
    21    9   35 1
    22   10   11 am
    23   10   36 1
    24   11   12 2
    25   11   13 1
    26   13   18 ar
    27   13   14 ar
    28   14   15 ar
    29   14   37 1
    30   15   23 1
    31   15   16 ar
    32   16   17 ar
    33   16   20 1
    34   17   18 ar
    35   17   38 1
    36   18   19 1
    37   20   21 am
    38   20   39 1
    39   21   22 2
    40   21   23 1
    41   23   40 1
    42   23   41 1
    43   24   25 1
    44   24   42 1
    45   24   43 1
    46   25   44 1
    47   25   45 1
##########                 Name:            smyd3_650
##########          Protonation:                 none
##########               SMILES:   O=C1CC2=CC(C(=O)NC3CCN(CC(F)(F)F)CC3)=C(Cl)C=C2N1
##########            Long Name:   NO_LONG_NAME
##########          FlexRecCode: 1
##########               Number:                 1728
##########   Ligand Source File: /proj/zinc22/users/x_andlu/OGG1/revisions/docking/targets/smyd3/db2gen/split_par
##########                 Rank:                    1
##########               Setnum:                    4
##########             Matchnum:                    8
##########                Cloud:                    1
##########        Electrostatic:           -19.685070
##########                 Gist:             0.000000
##########        Van der Waals:           -30.005060
##########  Ligand Polar Desolv:             5.793653
########## Ligand Apolar Desolv:            -1.294450
##########      Internal Energy:             0.000000
##########      Receptor Energy:             0.000000
########## Receptor Desolvation:             0.000000
########## Receptor Hydrophobic:             0.000000
##########         Total Energy:           -45.190929
##########        Ligand Charge:             0.000000
##########            Arbitrary:    +999.9990
##########        Ligand Energy:             0.000000

@<TRIPOS>MOLECULE
smyd3_650      none
   42    44     0     0     0
SMALL
USER_CHARGES

@<TRIPOS>ATOM
      1 O1         11.3871    9.5913   17.5506 O.2       1 <0>        -0.4900
      2 C1         12.1771    8.6963   17.3369 C.2       1 <0>         0.5300
      3 C2         13.2795    8.6990   16.2994 C.3       1 <0>        -0.1100
      4 C3         13.9450    7.3522   16.4694 C.ar      1 <0>        -0.1500
      5 C4         15.0006    6.7489   15.8344 C.ar      1 <0>        -0.0200
      6 C5         15.4008    5.4641   16.2177 C.ar      1 <0>        -0.1600
      7 C6         16.5348    4.8062   15.5413 C.2       1 <0>         0.5600
      8 O2         16.4926    4.6017   14.3435 O.2       1 <0>        -0.5100
      9 N1         17.6176    4.4318   16.2512 N.am      1 <0>        -0.7200
     10 C7         18.7438    3.7784   15.5796 C.3       1 <0>         0.1500
     11 C8         19.7425    4.8382   15.1067 C.3       1 <0>        -0.1200
     12 C9         20.9450    4.1467   14.4604 C.3       1 <0>         0.0400
     13 N2         21.5794    3.2517   15.4367 N.3       1 <0>        -0.5300
     14 C10        22.8178    2.6758   14.8959 C.3       1 <0>         0.0100
     15 C11        23.9510    3.6966   15.0186 C.3       1 <0>         0.4600
     16 F1         24.1388    4.0252   16.3652 F         1 <0>        -0.1700
     17 F2         25.1305    3.1482   14.5034 F         1 <0>        -0.1800
     18 F3         23.6197    4.8498   14.2990 F         1 <0>        -0.1800
     19 C12        20.6540    2.1970   15.8699 C.3       1 <0>         0.0600
     20 C13        19.4427    2.8303   16.5581 C.3       1 <0>        -0.1300
     21 C14        14.7138    4.8060   17.2430 C.ar      1 <0>         0.0500
     22 Cl1        15.1968    3.2089   17.7220 Cl        1 <0>        -0.0100
     23 C15        13.6593    5.4235   17.8773 C.ar      1 <0>        -0.1400
     24 C16        13.2599    6.7050   17.4951 C.ar      1 <0>         0.1900
     25 N3         12.2378    7.5165   17.9764 N.am      1 <0>        -0.6600
     26 H1         13.9884    9.5031   16.4972 H         1 <0>         0.1300
     27 H2         12.8612    8.7948   15.2975 H         1 <0>         0.1300
     28 H3         15.5211    7.2640   15.0407 H         1 <0>         0.1400
     29 H4         17.6513    4.5952   17.2068 H         1 <0>         0.4000
     30 H5         18.3783    3.2136   14.7220 H         1 <0>         0.0900
     31 H6         20.0772    5.4290   15.9593 H         1 <0>         0.0800
     32 H7         19.2625    5.4906   14.3772 H         1 <0>         0.0800
     33 H8         21.6646    4.8981   14.1354 H         1 <0>         0.1000
     34 H9         20.6112    3.5671   13.5998 H         1 <0>         0.0500
     35 H10        23.0759    1.7774   15.4565 H         1 <0>         0.1200
     36 H11        22.6716    2.4198   13.8465 H         1 <0>         0.0900
     37 H12        20.3217    1.6266   15.0024 H         1 <0>         0.0500
     38 H13        21.1622    1.5323   16.5684 H         1 <0>         0.0900
     39 H14        19.7728    3.3896   17.4336 H         1 <0>         0.0800
     40 H15        18.7486    2.0482   16.8656 H         1 <0>         0.0800
     41 H16        13.1359    4.9121   18.6715 H         1 <0>         0.1500
     42 H17        11.6367    7.2594   18.6930 H         1 <0>         0.4200
@<TRIPOS>BOND
     1    1    2 2
     2    2   25 am
     3    2    3 1
     4    3    4 1
     5    3   26 1
     6    3   27 1
     7    4   24 ar
     8    4    5 ar
     9    5    6 ar
    10    5   28 1
    11    6    7 1
    12    6   21 ar
    13    7    8 2
    14    7    9 am
    15    9   10 1
    16    9   29 1
    17   10   20 1
    18   10   11 1
    19   10   30 1
    20   11   12 1
    21   11   31 1
    22   11   32 1
    23   12   13 1
    24   12   33 1
    25   12   34 1
    26   13   14 1
    27   13   19 1
    28   14   15 1
    29   14   35 1
    30   14   36 1
    31   15   16 1
    32   15   17 1
    33   15   18 1
    34   19   20 1
    35   19   37 1
    36   19   38 1
    37   20   39 1
    38   20   40 1
    39   21   22 1
    40   21   23 ar
    41   23   24 ar
    42   23   41 1
    43   24   25 1
    44   25   42 1
##########                 Name:            smyd3_651
##########          Protonation:                 none
##########               SMILES:   CC(C)(O)C[NH+]1CCC(NC(=O)C2=CC3=C(C=C2Cl)NC(=O)C3)CC1
##########            Long Name:   NO_LONG_NAME
##########          FlexRecCode: 1
##########               Number:                 1731
##########   Ligand Source File: /proj/zinc22/users/x_andlu/OGG1/revisions/docking/targets/smyd3/db2gen/split_par
##########                 Rank:                    1
##########               Setnum:                   81
##########             Matchnum:                    1
##########                Cloud:                    1
##########        Electrostatic:           -28.646961
##########                 Gist:             0.000000
##########        Van der Waals:           -32.232838
##########  Ligand Polar Desolv:            10.034747
########## Ligand Apolar Desolv:            -1.365174
##########      Internal Energy:             0.000000
##########      Receptor Energy:             0.000000
########## Receptor Desolvation:             0.000000
########## Receptor Hydrophobic:             0.000000
##########         Total Energy:           -52.210224
##########        Ligand Charge:             1.000000
##########            Arbitrary:    +999.9990
##########        Ligand Energy:             0.000000

@<TRIPOS>MOLECULE
smyd3_651      none
   50    52     0     0     0
SMALL
USER_CHARGES

@<TRIPOS>ATOM
      1 C1         21.2939   -2.6218   14.9284 C.3       1 <0>        -0.1800
      2 C2         20.2484   -1.5048   14.9445 C.3       1 <0>         0.1100
      3 C3         19.0858   -1.9077   15.8539 C.3       1 <0>        -0.1700
      4 O1         19.7626   -1.2879   13.6181 O.3       1 <0>        -0.5500
      5 C4         20.8854   -0.2174   15.4712 C.3       1 <0>        -0.0400
      6 N1         19.8325    0.6948   15.9375 N.4       1 <0>        -0.3800
      7 H1         19.3081    0.2515   16.6769 H         1 <0>         0.4200
      8 C5         20.4453    1.9279   16.4458 C.3       1 <0>        -0.0000
      9 C6         19.3590    2.8479   17.0071 C.3       1 <0>        -0.1600
     10 C7         18.3638    3.1913   15.8950 C.3       1 <0>         0.1400
     11 N2         17.2796    4.0099   16.4435 N.am      1 <0>        -0.7300
     12 C8         16.2808    4.4300   15.6420 C.2       1 <0>         0.5700
     13 O2         16.2795    4.1296   14.4637 O.2       1 <0>        -0.5000
     14 C9         15.1892    5.2543   16.1943 C.ar      1 <0>        -0.1700
     15 C10        14.9476    6.5353   15.6872 C.ar      1 <0>        -0.0200
     16 C11        13.9263    7.2922   16.2037 C.ar      1 <0>        -0.1500
     17 C12        13.1208    6.8051   17.2298 C.ar      1 <0>         0.2000
     18 C13        13.3617    5.5264   17.7356 C.ar      1 <0>        -0.1400
     19 C14        14.3838    4.7585   17.2253 C.ar      1 <0>         0.0600
     20 Cl1        14.6741    3.1700   17.8626 Cl        1 <0>        -0.0100
     21 N3         12.1635    7.7517   17.5796 N.am      1 <0>        -0.6600
     22 C15        12.2625    8.8739   16.8476 C.2       1 <0>         0.5300
     23 O3         11.5595    9.8578   16.9393 O.2       1 <0>        -0.4800
     24 C16        13.4161    8.6795   15.8867 C.3       1 <0>        -0.1100
     25 C17        17.7860    1.8949   15.3200 C.3       1 <0>        -0.1600
     26 C18        18.9308    1.0093   14.8229 C.3       1 <0>        -0.0300
     27 H2         22.1221   -2.3347   14.2806 H         1 <0>         0.0800
     28 H3         21.6646   -2.7872   15.9401 H         1 <0>         0.0900
     29 H4         20.8402   -3.5390   14.5531 H         1 <0>         0.0700
     30 H5         18.3409   -1.1121   15.8653 H         1 <0>         0.0600
     31 H6         18.6321   -2.8250   15.4787 H         1 <0>         0.1000
     32 H7         19.4563   -2.0732   16.8655 H         1 <0>         0.0900
     33 H8         20.4472   -1.0289   12.9861 H         1 <0>         0.3900
     34 H9         21.4526    0.2605   14.6725 H         1 <0>         0.1300
     35 H10        21.5533   -0.4548   16.2992 H         1 <0>         0.1400
     36 H11        20.9667    2.4352   15.6341 H         1 <0>         0.1300
     37 H12        21.1554    1.6812   17.2351 H         1 <0>         0.1300
     38 H13        19.8158    3.7636   17.3823 H         1 <0>         0.1200
     39 H14        18.8370    2.3416   17.8190 H         1 <0>         0.0900
     40 H15        18.8746    3.7440   15.1065 H         1 <0>         0.1100
     41 H16        17.2807    4.2494   17.3834 H         1 <0>         0.4000
     42 H17        15.5631    6.9276   14.8912 H         1 <0>         0.1400
     43 H18        12.7436    5.1380   18.5315 H         1 <0>         0.1500
     44 H19        11.4994    7.6169   18.2735 H         1 <0>         0.4200
     45 H20        14.1928    9.4228   16.0667 H         1 <0>         0.1300
     46 H21        13.0673    8.7320   14.8553 H         1 <0>         0.1300
     47 H22        17.2306    1.3682   16.0960 H         1 <0>         0.0900
     48 H23        17.1194    2.1300   14.4902 H         1 <0>         0.1200
     49 H24        19.4845    1.5363   14.0457 H         1 <0>         0.1300
     50 H25        18.5227    0.0848   14.4142 H         1 <0>         0.1700
@<TRIPOS>BOND
     1    1    2 1
     2    1   27 1
     3    1   28 1
     4    1   29 1
     5    2    3 1
     6    2    4 1
     7    2    5 1
     8    3   30 1
     9    3   31 1
    10    3   32 1
    11    4   33 1
    12    5    6 1
    13    5   34 1
    14    5   35 1
    15    6    7 1
    16    6   26 1
    17    6    8 1
    18    8    9 1
    19    8   36 1
    20    8   37 1
    21    9   10 1
    22    9   38 1
    23    9   39 1
    24   10   11 1
    25   10   25 1
    26   10   40 1
    27   11   12 am
    28   11   41 1
    29   12   13 2
    30   12   14 1
    31   14   19 ar
    32   14   15 ar
    33   15   16 ar
    34   15   42 1
    35   16   24 1
    36   16   17 ar
    37   17   18 ar
    38   17   21 1
    39   18   19 ar
    40   18   43 1
    41   19   20 1
    42   21   22 am
    43   21   44 1
    44   22   23 2
    45   22   24 1
    46   24   45 1
    47   24   46 1
    48   25   26 1
    49   25   47 1
    50   25   48 1
    51   26   49 1
    52   26   50 1
##########                 Name:            smyd3_652
##########          Protonation:                 none
##########               SMILES:   COCCC[NH+]1CCC(NC(=O)C2=CC3=C(C=C2Cl)NC(=O)C3)CC1
##########            Long Name:   NO_LONG_NAME
##########          FlexRecCode: 1
##########               Number:                 1732
##########   Ligand Source File: /proj/zinc22/users/x_andlu/OGG1/revisions/docking/targets/smyd3/db2gen/split_par
##########                 Rank:                    1
##########               Setnum:                    2
##########             Matchnum:                   14
##########                Cloud:                    1
##########        Electrostatic:           -26.434202
##########                 Gist:             0.000000
##########        Van der Waals:           -31.689430
##########  Ligand Polar Desolv:            10.148260
########## Ligand Apolar Desolv:            -2.133780
##########      Internal Energy:             0.000000
##########      Receptor Energy:             0.000000
########## Receptor Desolvation:             0.000000
########## Receptor Hydrophobic:             0.000000
##########         Total Energy:           -50.109154
##########        Ligand Charge:             1.000000
##########            Arbitrary:    +999.9990
##########        Ligand Energy:             0.000000

@<TRIPOS>MOLECULE
smyd3_652      none
   50    52     0     0     0
SMALL
USER_CHARGES

@<TRIPOS>ATOM
      1 C1         18.7816   -0.9691   19.2949 C.3       1 <0>         0.0300
      2 O1         19.5654   -0.4808   18.2042 O.3       1 <0>        -0.3900
      3 C2         20.5095   -1.4263   17.6977 C.3       1 <0>         0.0600
      4 C3         21.2881   -0.7993   16.5395 C.3       1 <0>        -0.1500
      5 C4         20.3159   -0.4032   15.4265 C.3       1 <0>        -0.0100
      6 N1         19.3454    0.5690   15.9471 N.4       1 <0>        -0.3800
      7 H1         19.0737    0.3024   16.8817 H         1 <0>         0.4200
      8 C5         19.9593    1.9019   15.9791 C.3       1 <0>        -0.0000
      9 C6         18.9808    2.9036   16.5961 C.3       1 <0>        -0.1600
     10 C7         17.7041    2.9480   15.7516 C.3       1 <0>         0.1400
     11 N2         16.7331    3.8481   16.3786 N.am      1 <0>        -0.7300
     12 C8         15.8454    4.5177   15.6170 C.2       1 <0>         0.5700
     13 O2         15.8504    4.3747   14.4094 O.2       1 <0>        -0.5000
     14 C9         14.8676    5.4242   16.2483 C.ar      1 <0>        -0.1700
     15 C10        14.8450    6.7815   15.9112 C.ar      1 <0>        -0.0200
     16 C11        13.9281    7.6155   16.4999 C.ar      1 <0>        -0.1500
     17 C12        13.0140    7.1321   17.4325 C.ar      1 <0>         0.2000
     18 C13        13.0366    5.7774   17.7688 C.ar      1 <0>        -0.1400
     19 C14        13.9521    4.9316   17.1848 C.ar      1 <0>         0.0600
     20 Cl1        13.9708    3.2489   17.6110 Cl        1 <0>        -0.0100
     21 N3         12.1965    8.1635   17.8828 N.am      1 <0>        -0.6600
     22 C15        12.4960    9.3410   17.3098 C.2       1 <0>         0.5300
     23 O3         11.9464   10.4024   17.5153 O.2       1 <0>        -0.4800
     24 C16        13.6479    9.0944   16.3588 C.3       1 <0>        -0.1100
     25 C17        17.1120    1.5385   15.6617 C.3       1 <0>        -0.1600
     26 C18        18.1604    0.5870   15.0811 C.3       1 <0>        -0.0100
     27 H2         18.0902   -0.1925   19.6217 H         1 <0>         0.0500
     28 H3         18.2185   -1.8453   18.9738 H         1 <0>         0.0500
     29 H4         19.4385   -1.2418   20.1208 H         1 <0>         0.1000
     30 H5         19.9822   -2.3123   17.3437 H         1 <0>         0.0600
     31 H6         21.2022   -1.7085   18.4906 H         1 <0>         0.0600
     32 H7         22.0083   -1.5206   16.1532 H         1 <0>         0.1000
     33 H8         21.8154    0.0865   16.8936 H         1 <0>         0.1000
     34 H9         19.7885   -1.2890   15.0724 H         1 <0>         0.1300
     35 H10        20.8707    0.0435   14.6015 H         1 <0>         0.1300
     36 H11        20.2048    2.2127   14.9637 H         1 <0>         0.1300
     37 H12        20.8693    1.8674   16.5781 H         1 <0>         0.1400
     38 H13        19.4379    3.8929   16.6172 H         1 <0>         0.1200
     39 H14        18.7348    2.5945   17.6120 H         1 <0>         0.1000
     40 H15        17.9416    3.3081   14.7506 H         1 <0>         0.1100
     41 H16        16.7291    3.9623   17.3418 H         1 <0>         0.4000
     42 H17        15.5470    7.1720   15.1893 H         1 <0>         0.1400
     43 H18        12.3325    5.3911   18.4909 H         1 <0>         0.1500
     44 H19        11.4898    8.0458   18.5367 H         1 <0>         0.4200
     45 H20        14.5194    9.6783   16.6547 H         1 <0>         0.1300
     46 H21        13.3566    9.3323   15.3358 H         1 <0>         0.1300
     47 H22        16.8262    1.1996   16.6574 H         1 <0>         0.0900
     48 H23        16.2342    1.5529   15.0155 H         1 <0>         0.1200
     49 H24        18.4443    0.9258   14.0848 H         1 <0>         0.1300
     50 H25        17.7423   -0.4177   15.0173 H         1 <0>         0.1400
@<TRIPOS>BOND
     1    1    2 1
     2    1   27 1
     3    1   28 1
     4    1   29 1
     5    2    3 1
     6    3    4 1
     7    3   30 1
     8    3   31 1
     9    4    5 1
    10    4   32 1
    11    4   33 1
    12    5    6 1
    13    5   34 1
    14    5   35 1
    15    6    7 1
    16    6   26 1
    17    6    8 1
    18    8    9 1
    19    8   36 1
    20    8   37 1
    21    9   10 1
    22    9   38 1
    23    9   39 1
    24   10   11 1
    25   10   25 1
    26   10   40 1
    27   11   12 am
    28   11   41 1
    29   12   13 2
    30   12   14 1
    31   14   19 ar
    32   14   15 ar
    33   15   16 ar
    34   15   42 1
    35   16   24 1
    36   16   17 ar
    37   17   18 ar
    38   17   21 1
    39   18   19 ar
    40   18   43 1
    41   19   20 1
    42   21   22 am
    43   21   44 1
    44   22   23 2
    45   22   24 1
    46   24   45 1
    47   24   46 1
    48   25   26 1
    49   25   47 1
    50   25   48 1
    51   26   49 1
    52   26   50 1
##########                 Name:            smyd3_653
##########          Protonation:                 none
##########               SMILES:   C[NH+](C)CCN1CCC(NC(=O)C2=CC3=C(C=C2Cl)NC(=O)C3)CC1
##########            Long Name:   NO_LONG_NAME
##########          FlexRecCode: 1
##########               Number:                 1736
##########   Ligand Source File: /proj/zinc22/users/x_andlu/OGG1/revisions/docking/targets/smyd3/db2gen/split_par
##########                 Rank:                    1
##########               Setnum:                   43
##########             Matchnum:                   12
##########                Cloud:                    1
##########        Electrostatic:           -24.506382
##########                 Gist:             0.000000
##########        Van der Waals:           -34.278835
##########  Ligand Polar Desolv:            10.407813
########## Ligand Apolar Desolv:            -2.013608
##########      Internal Energy:             0.000000
##########      Receptor Energy:             0.000000
########## Receptor Desolvation:             0.000000
########## Receptor Hydrophobic:             0.000000
##########         Total Energy:           -50.391010
##########        Ligand Charge:             1.000000
##########            Arbitrary:    +999.9990
##########        Ligand Energy:             0.000000

@<TRIPOS>MOLECULE
smyd3_653      none
   51    53     0     0     0
SMALL
USER_CHARGES

@<TRIPOS>ATOM
      1 C1         20.5528   -4.1293   15.4702 C.3       1 <0>        -0.0500
      2 N1         21.0654   -2.7826   15.1848 N.4       1 <0>        -0.3900
      3 H1         21.9392   -2.6454   15.6704 H         1 <0>         0.4300
      4 C2         21.2807   -2.6369   13.7390 C.3       1 <0>        -0.0500
      5 C3         20.0909   -1.7812   15.6381 C.3       1 <0>        -0.0200
      6 C4         20.6250   -0.3787   15.3406 C.3       1 <0>         0.0300
      7 N2         19.6505    0.6227   15.7939 N.3       1 <0>        -0.5300
      8 C5         20.3053    1.9086   16.0665 C.3       1 <0>         0.0600
      9 C6         19.2907    2.8808   16.6725 C.3       1 <0>        -0.1300
     10 C7         18.1298    3.0755   15.6933 C.3       1 <0>         0.1500
     11 N3         17.1271    3.9598   16.2922 N.am      1 <0>        -0.7300
     12 C8         16.0090    4.2722   15.6075 C.2       1 <0>         0.5600
     13 O1         15.8325    3.8200   14.4927 O.2       1 <0>        -0.5100
     14 C9         14.9993    5.1628   16.2107 C.ar      1 <0>        -0.1600
     15 C10        14.6626    6.3695   15.5888 C.ar      1 <0>        -0.0200
     16 C11        13.7226    7.1913   16.1579 C.ar      1 <0>        -0.1500
     17 C12        13.0941    6.8435   17.3508 C.ar      1 <0>         0.1900
     18 C13        13.4304    5.6391   17.9715 C.ar      1 <0>        -0.1400
     19 C14        14.3719    4.8070   17.4095 C.ar      1 <0>         0.0500
     20 Cl1        14.7813    3.3115   18.1901 Cl        1 <0>        -0.0100
     21 N4         12.1923    7.8343   17.7252 N.am      1 <0>        -0.6600
     22 C15        12.1547    8.8499   16.8468 C.2       1 <0>         0.5300
     23 O2         11.4593    9.8409   16.9211 O.2       1 <0>        -0.4800
     24 C16        13.1477    8.5287   15.7502 C.3       1 <0>        -0.1100
     25 C17        17.4959    1.7155   15.3885 C.3       1 <0>        -0.1300
     26 C18        18.5625    0.7769   14.8197 C.3       1 <0>         0.0400
     27 H2         19.6088   -4.2774   14.9457 H         1 <0>         0.1200
     28 H3         21.2758   -4.8723   15.1338 H         1 <0>         0.1300
     29 H4         20.3929   -4.2374   16.5431 H         1 <0>         0.1200
     30 H5         21.6612   -1.6376   13.5271 H         1 <0>         0.1200
     31 H6         22.0039   -3.3799   13.4027 H         1 <0>         0.1300
     32 H7         20.3369   -2.7851   13.2144 H         1 <0>         0.1200
     33 H8         19.9313   -1.8893   16.7109 H         1 <0>         0.1400
     34 H9         19.1469   -1.9294   15.1136 H         1 <0>         0.1300
     35 H10        20.7846   -0.2707   14.2677 H         1 <0>         0.0600
     36 H11        21.5689   -0.2305   15.8651 H         1 <0>         0.1000
     37 H12        20.6941    2.3225   15.1361 H         1 <0>         0.0500
     38 H13        21.1261    1.7565   16.7675 H         1 <0>         0.0900
     39 H14        19.7731    3.8400   16.8603 H         1 <0>         0.0800
     40 H15        18.9116    2.4738   17.6100 H         1 <0>         0.0800
     41 H16        18.5024    3.5198   14.7703 H         1 <0>         0.0900
     42 H17        17.2678    4.3205   17.1816 H         1 <0>         0.4000
     43 H18        15.1407    6.6535   14.6629 H         1 <0>         0.1400
     44 H19        12.9495    5.3589   18.8969 H         1 <0>         0.1500
     45 H20        11.6502    7.7950   18.5286 H         1 <0>         0.4200
     46 H21        12.6421    8.4500   14.7878 H         1 <0>         0.1300
     47 H22        13.9300    9.2867   15.7090 H         1 <0>         0.1300
     48 H23        17.0886    1.2900   16.3057 H         1 <0>         0.0800
     49 H24        16.6960    1.8420   14.6589 H         1 <0>         0.0800
     50 H25        18.9595    1.1963   13.8952 H         1 <0>         0.0500
     51 H26        18.1175   -0.1969   14.6152 H         1 <0>         0.0800
@<TRIPOS>BOND
     1    1    2 1
     2    1   27 1
     3    1   28 1
     4    1   29 1
     5    2    3 1
     6    2    4 1
     7    2    5 1
     8    4   30 1
     9    4   31 1
    10    4   32 1
    11    5    6 1
    12    5   33 1
    13    5   34 1
    14    6    7 1
    15    6   35 1
    16    6   36 1
    17    7   26 1
    18    7    8 1
    19    8    9 1
    20    8   37 1
    21    8   38 1
    22    9   10 1
    23    9   39 1
    24    9   40 1
    25   10   11 1
    26   10   25 1
    27   10   41 1
    28   11   12 am
    29   11   42 1
    30   12   13 2
    31   12   14 1
    32   14   19 ar
    33   14   15 ar
    34   15   16 ar
    35   15   43 1
    36   16   24 1
    37   16   17 ar
    38   17   18 ar
    39   17   21 1
    40   18   19 ar
    41   18   44 1
    42   19   20 1
    43   21   22 am
    44   21   45 1
    45   22   23 2
    46   22   24 1
    47   24   46 1
    48   24   47 1
    49   25   26 1
    50   25   48 1
    51   25   49 1
    52   26   50 1
    53   26   51 1
##########                 Name:            smyd3_654
##########          Protonation:                 none
##########               SMILES:   CP(C)(=O)C[NH+]1CCC(NC(=O)C2=CC3=C(C=C2Cl)NC(=O)C3)CC1
##########            Long Name:   NO_LONG_NAME
##########          FlexRecCode: 1
##########               Number:                 1741
##########   Ligand Source File: /proj/zinc22/users/x_andlu/OGG1/revisions/docking/targets/smyd3/db2gen/split_par
##########                 Rank:                    1
##########               Setnum:                   44
##########             Matchnum:                    7
##########                Cloud:                    1
##########        Electrostatic:           -28.033112
##########                 Gist:             0.000000
##########        Van der Waals:           -31.084349
##########  Ligand Polar Desolv:            10.728234
########## Ligand Apolar Desolv:            -1.740574
##########      Internal Energy:             0.000000
##########      Receptor Energy:             0.000000
########## Receptor Desolvation:             0.000000
########## Receptor Hydrophobic:             0.000000
##########         Total Energy:           -50.129803
##########        Ligand Charge:             1.000000
##########            Arbitrary:    +999.9990
##########        Ligand Energy:             0.000000

@<TRIPOS>MOLECULE
smyd3_654      none
   49    51     0     0     0
SMALL
USER_CHARGES

@<TRIPOS>ATOM
      1 C1         21.5752   -2.9816   15.7978 C.3       1 <0>        -0.7900
      2 P1         20.1477   -1.8476   15.8093 P.3       1 <0>         2.4300
      3 C2         19.3088   -1.9431   17.4250 C.3       1 <0>        -0.8000
      4 O1         19.2019   -2.2343   14.7386 O.2       1 <0>        -0.9500
      5 C3         20.7243   -0.1419   15.5238 C.3       1 <0>        -0.6400
      6 N1         19.7047    0.8049   15.9949 N.4       1 <0>        -0.3600
      7 H1         19.3087    0.4684   16.8597 H         1 <0>         0.4100
      8 C4         18.6441    0.9212   14.9869 C.3       1 <0>        -0.0400
      9 C5         17.5397    1.8436   15.5070 C.3       1 <0>        -0.1600
     10 C6         18.1300    3.2279   15.7911 C.3       1 <0>         0.1400
     11 N2         17.0952    4.0942   16.3610 N.am      1 <0>        -0.7300
     12 C7         15.9769    4.3607   15.6576 C.2       1 <0>         0.5700
     13 O2         15.8268    3.8820   14.5500 O.2       1 <0>        -0.5000
     14 C8         14.9347    5.2331   16.2315 C.ar      1 <0>        -0.1700
     15 C9         14.5664    6.4141   15.5786 C.ar      1 <0>        -0.0200
     16 C10        13.5961    7.2189   16.1203 C.ar      1 <0>        -0.1500
     17 C11        12.9676    6.8793   17.3155 C.ar      1 <0>         0.2000
     18 C12        13.3353    5.7006   17.9670 C.ar      1 <0>        -0.1400
     19 C13        14.3034    4.8827   17.4297 C.ar      1 <0>         0.0600
     20 Cl1        14.7472    3.4158   18.2451 Cl        1 <0>        -0.0100
     21 N3         12.0279    7.8468   17.6558 N.am      1 <0>        -0.6600
     22 C14        11.9710    8.8432   16.7566 C.2       1 <0>         0.5300
     23 O3         11.2443    9.8131   16.8016 O.2       1 <0>        -0.4800
     24 C15        12.9838    8.5279   15.6765 C.3       1 <0>        -0.1100
     25 C16        19.2841    3.0851   16.7875 C.3       1 <0>        -0.1600
     26 C17        20.3239    2.1165   16.2198 C.3       1 <0>        -0.0000
     27 H2         22.0768   -2.9245   14.8317 H         1 <0>         0.1000
     28 H3         22.2717   -2.6968   16.5863 H         1 <0>         0.1300
     29 H4         21.2303   -4.0014   15.9684 H         1 <0>         0.1200
     30 H5         18.4554   -1.2651   17.4319 H         1 <0>         0.1100
     31 H6         18.9640   -2.9630   17.5957 H         1 <0>         0.1300
     32 H7         20.0054   -1.6583   18.2134 H         1 <0>         0.1000
     33 H8         21.6535    0.0235   16.0692 H         1 <0>         0.1600
     34 H9         20.8965    0.0099   14.4582 H         1 <0>         0.1800
     35 H10        19.0602    1.3352   14.0685 H         1 <0>         0.1400
     36 H11        18.2271   -0.0652   14.7835 H         1 <0>         0.1800
     37 H12        17.1226    1.4303   16.4255 H         1 <0>         0.0900
     38 H13        16.7540    1.9300   14.7565 H         1 <0>         0.1300
     39 H14        18.5009    3.6645   14.8638 H         1 <0>         0.1100
     40 H15        17.2148    4.4760   17.2447 H         1 <0>         0.4000
     41 H16        15.0441    6.6915   14.6506 H         1 <0>         0.1400
     42 H17        12.8550    5.4271   18.8948 H         1 <0>         0.1500
     43 H18        11.4757    7.8063   18.4523 H         1 <0>         0.4200
     44 H19        13.7438    9.3076   15.6259 H         1 <0>         0.1300
     45 H20        12.4899    8.4112   14.7119 H         1 <0>         0.1300
     46 H21        18.9034    2.6975   17.7325 H         1 <0>         0.1000
     47 H22        19.7456    4.0587   16.9529 H         1 <0>         0.1200
     48 H23        21.1472    2.0128   16.9267 H         1 <0>         0.1300
     49 H24        20.7036    2.5054   15.2751 H         1 <0>         0.1400
@<TRIPOS>BOND
     1    1    2 1
     2    1   27 1
     3    1   28 1
     4    1   29 1
     5    2    3 1
     6    2    4 2
     7    2    5 1
     8    3   30 1
     9    3   31 1
    10    3   32 1
    11    5    6 1
    12    5   33 1
    13    5   34 1
    14    6    7 1
    15    6   26 1
    16    6    8 1
    17    8    9 1
    18    8   35 1
    19    8   36 1
    20    9   10 1
    21    9   37 1
    22    9   38 1
    23   10   11 1
    24   10   25 1
    25   10   39 1
    26   11   12 am
    27   11   40 1
    28   12   13 2
    29   12   14 1
    30   14   19 ar
    31   14   15 ar
    32   15   16 ar
    33   15   41 1
    34   16   24 1
    35   16   17 ar
    36   17   18 ar
    37   17   21 1
    38   18   19 ar
    39   18   42 1
    40   19   20 1
    41   21   22 am
    42   21   43 1
    43   22   23 2
    44   22   24 1
    45   24   44 1
    46   24   45 1
    47   25   26 1
    48   25   46 1
    49   25   47 1
    50   26   48 1
    51   26   49 1
##########                 Name:            smyd3_662
##########          Protonation:                 none
##########               SMILES:   CN(C(=O)C1=CC=C2NC(=O)CC2=C1)C1CCN(CC(F)(F)F)CC1
##########            Long Name:   NO_LONG_NAME
##########          FlexRecCode: 1
##########               Number:                 1758
##########   Ligand Source File: /proj/zinc22/users/x_andlu/OGG1/revisions/docking/targets/smyd3/db2gen/split_par
##########                 Rank:                    1
##########               Setnum:                   15
##########             Matchnum:                    7
##########                Cloud:                    1
##########        Electrostatic:           -14.117440
##########                 Gist:             0.000000
##########        Van der Waals:           -33.311462
##########  Ligand Polar Desolv:             5.977614
########## Ligand Apolar Desolv:            -2.037471
##########      Internal Energy:             0.000000
##########      Receptor Energy:             0.000000
########## Receptor Desolvation:             0.000000
########## Receptor Hydrophobic:             0.000000
##########         Total Energy:           -43.488758
##########        Ligand Charge:             0.000000
##########            Arbitrary:    +999.9990
##########        Ligand Energy:             0.000000

@<TRIPOS>MOLECULE
smyd3_662      none
   45    47     0     0     0
SMALL
USER_CHARGES

@<TRIPOS>ATOM
      1 C1         15.2010    2.9592   15.5898 C.3       1 <0>         0.0700
      2 N1         16.4700    3.5410   16.0338 N.am      1 <0>        -0.6100
      3 C2         16.5676    4.8698   16.2372 C.2       1 <0>         0.5700
      4 O1         17.6308    5.4344   16.0669 O.2       1 <0>        -0.5300
      5 C3         15.3838    5.6396   16.6668 C.ar      1 <0>        -0.1500
      6 C4         14.7411    5.3300   17.8682 C.ar      1 <0>        -0.0300
      7 C5         13.6387    6.0480   18.2686 C.ar      1 <0>        -0.1400
      8 C6         13.1522    7.0918   17.4790 C.ar      1 <0>         0.1700
      9 N2         12.0716    7.9459   17.6721 N.am      1 <0>        -0.6600
     10 C7         11.9320    8.8289   16.6695 C.2       1 <0>         0.5300
     11 O2         11.0790    9.6863   16.5784 O.2       1 <0>        -0.4900
     12 C8         13.0391    8.5530   15.6745 C.3       1 <0>        -0.1100
     13 C9         13.8000    7.3960   16.2809 C.ar      1 <0>        -0.1500
     14 C10        14.8975    6.6847   15.8742 C.ar      1 <0>        -0.0400
     15 C11        17.6330    2.6785   16.2566 C.3       1 <0>         0.1400
     16 C12        17.9890    1.9533   14.9559 C.3       1 <0>        -0.1200
     17 C13        19.1649    1.0074   15.2105 C.3       1 <0>         0.0600
     18 N3         18.7995    0.0370   16.2502 N.3       1 <0>        -0.5300
     19 C14        19.8535   -0.9716   16.4229 C.3       1 <0>         0.0100
     20 C15        19.2690   -2.2080   17.1087 C.3       1 <0>         0.4600
     21 F1         18.2419   -2.7371   16.3199 F         1 <0>        -0.1700
     22 F2         20.2728   -3.1685   17.2732 F         1 <0>        -0.1800
     23 F3         18.7577   -1.8490   18.3604 F         1 <0>        -0.1800
     24 C16        18.5002    0.7083   17.5215 C.3       1 <0>         0.0400
     25 C17        17.3036    1.6441   17.3365 C.3       1 <0>        -0.1200
     26 H1         15.3142    1.8806   15.4804 H         1 <0>         0.0600
     27 H2         14.4268    3.1703   16.3275 H         1 <0>         0.0800
     28 H3         14.9176    3.3939   14.6312 H         1 <0>         0.0800
     29 H4         15.1115    4.5243   18.4847 H         1 <0>         0.1400
     30 H5         13.1470    5.8036   19.1986 H         1 <0>         0.1400
     31 H6         11.4852    7.9085   18.4439 H         1 <0>         0.4200
     32 H7         12.6224    8.2713   14.7074 H         1 <0>         0.1300
     33 H8         13.6863    9.4240   15.5715 H         1 <0>         0.1300
     34 H9         15.3868    6.9318   14.9436 H         1 <0>         0.1400
     35 H10        18.4796    3.2847   16.5792 H         1 <0>         0.1000
     36 H11        17.1288    1.3788   14.6124 H         1 <0>         0.0800
     37 H12        18.2664    2.6839   14.1961 H         1 <0>         0.0800
     38 H13        20.0291    1.5842   15.5396 H         1 <0>         0.0500
     39 H14        19.4107    0.4780   14.2899 H         1 <0>         0.0900
     40 H15        20.2520   -1.2513   15.4476 H         1 <0>         0.1200
     41 H16        20.6537   -0.5593   17.0375 H         1 <0>         0.0900
     42 H17        19.3676    1.2866   17.8399 H         1 <0>         0.0500
     43 H18        18.2636   -0.0384   18.2795 H         1 <0>         0.1000
     44 H19        17.0915    2.1539   18.2762 H         1 <0>         0.0800
     45 H20        16.4323    1.0646   17.0314 H         1 <0>         0.0800
@<TRIPOS>BOND
     1    1    2 1
     2    1   26 1
     3    1   27 1
     4    1   28 1
     5    2    3 am
     6    2   15 1
     7    3    4 2
     8    3    5 1
     9    5   14 ar
    10    5    6 ar
    11    6    7 ar
    12    6   29 1
    13    7    8 ar
    14    7   30 1
    15    8   13 ar
    16    8    9 1
    17    9   10 am
    18    9   31 1
    19   10   11 2
    20   10   12 1
    21   12   13 1
    22   12   32 1
    23   12   33 1
    24   13   14 ar
    25   14   34 1
    26   15   25 1
    27   15   16 1
    28   15   35 1
    29   16   17 1
    30   16   36 1
    31   16   37 1
    32   17   18 1
    33   17   38 1
    34   17   39 1
    35   18   19 1
    36   18   24 1
    37   19   20 1
    38   19   40 1
    39   19   41 1
    40   20   21 1
    41   20   22 1
    42   20   23 1
    43   24   25 1
    44   24   42 1
    45   24   43 1
    46   25   44 1
    47   25   45 1
##########                 Name:            smyd3_690
##########          Protonation:                 none
##########               SMILES:   CN(C(=O)C1=CC=C2NC(=O)CC2=C1)C1CCN(C(=O)C2CC2)CC1
##########            Long Name:   NO_LONG_NAME
##########          FlexRecCode: 1
##########               Number:                 1832
##########   Ligand Source File: /proj/zinc22/users/x_andlu/OGG1/revisions/docking/targets/smyd3/db2gen/split_par
##########                 Rank:                    1
##########               Setnum:                   37
##########             Matchnum:                    8
##########                Cloud:                    1
##########        Electrostatic:           -11.723513
##########                 Gist:             0.000000
##########        Van der Waals:           -34.710579
##########  Ligand Polar Desolv:             7.818364
########## Ligand Apolar Desolv:            -2.494590
##########      Internal Energy:             0.000000
##########      Receptor Energy:             0.000000
########## Receptor Desolvation:             0.000000
########## Receptor Hydrophobic:             0.000000
##########         Total Energy:           -41.110317
##########        Ligand Charge:             0.000000
##########            Arbitrary:    +999.9990
##########        Ligand Energy:             0.000000

@<TRIPOS>MOLECULE
smyd3_690      none
   48    51     0     0     0
SMALL
USER_CHARGES

@<TRIPOS>ATOM
      1 C1         15.0353    2.8842   15.5806 C.3       1 <0>         0.0700
      2 N1         16.3315    3.4462   15.9687 N.am      1 <0>        -0.6100
      3 C2         16.4633    4.7755   16.1474 C.2       1 <0>         0.5700
      4 O1         17.5307    5.3153   15.9295 O.2       1 <0>        -0.5300
      5 C3         15.3118    5.5761   16.6074 C.ar      1 <0>        -0.1500
      6 C4         14.7073    5.2981   17.8362 C.ar      1 <0>        -0.0300
      7 C5         13.6351    6.0447   18.2650 C.ar      1 <0>        -0.1400
      8 C6         13.1412    7.0864   17.4771 C.ar      1 <0>         0.1700
      9 N2         12.0860    7.9656   17.6960 N.am      1 <0>        -0.6600
     10 C7         11.9277    8.8363   16.6852 C.2       1 <0>         0.5300
     11 O2         11.0897    9.7100   16.6119 O.2       1 <0>        -0.4900
     12 C8         12.9918    8.5224   15.6552 C.3       1 <0>        -0.1100
     13 C9         13.7508    7.3590   16.2517 C.ar      1 <0>        -0.1500
     14 C10        14.8179    6.6191   15.8166 C.ar      1 <0>        -0.0400
     15 C11        17.4841    2.5631   16.1628 C.3       1 <0>         0.1400
     16 C12        17.7809    1.8182   14.8592 C.3       1 <0>        -0.1400
     17 C13        19.0076    0.9220   15.0558 C.3       1 <0>         0.1100
     18 N3         18.7728    0.0458   16.2115 N.am      1 <0>        -0.6100
     19 C14        18.9039   -1.2908   16.0978 C.2       1 <0>         0.5500
     20 O3         18.6771   -1.8343   15.0375 O.2       1 <0>        -0.5400
     21 C15        19.3320   -2.1100   17.2880 C.3       1 <0>        -0.2000
     22 C16        20.6452   -1.7274   17.9734 C.3       1 <0>        -0.1500
     23 C17        20.5661   -2.9998   17.1262 C.3       1 <0>        -0.1500
     24 C18        18.3922    0.6541   17.4936 C.3       1 <0>         0.1100
     25 C19        17.1723    1.5534   17.2697 C.3       1 <0>        -0.1400
     26 H1         15.1228    1.8020   15.4844 H         1 <0>         0.0600
     27 H2         14.2932    3.1223   16.3426 H         1 <0>         0.0800
     28 H3         14.7259    3.3101   14.6262 H         1 <0>         0.0800
     29 H4         15.0838    4.4941   18.4514 H         1 <0>         0.1400
     30 H5         13.1730    5.8244   19.2159 H         1 <0>         0.1400
     31 H6         11.5273    7.9516   18.4888 H         1 <0>         0.4200
     32 H7         12.5343    8.2351   14.7085 H         1 <0>         0.1300
     33 H8         13.6523    9.3782   15.5150 H         1 <0>         0.1300
     34 H9         15.2780    6.8421   14.8654 H         1 <0>         0.1400
     35 H10        18.3528    3.1571   16.4472 H         1 <0>         0.1100
     36 H11        16.9220    1.2046   14.5871 H         1 <0>         0.0700
     37 H12        17.9799    2.5385   14.0658 H         1 <0>         0.0800
     38 H13        19.8864    1.5404   15.2387 H         1 <0>         0.0800
     39 H14        19.1642    0.3159   14.1634 H         1 <0>         0.0900
     40 H15        18.5240   -2.4800   17.9192 H         1 <0>         0.1300
     41 H16        21.1996   -0.8833   17.5634 H         1 <0>         0.1000
     42 H17        20.7015   -1.8460   19.0555 H         1 <0>         0.1100
     43 H18        20.5701   -3.9550   17.6511 H         1 <0>         0.1000
     44 H19        21.0683   -2.9927   16.1588 H         1 <0>         0.1100
     45 H20        19.2207    1.2507   17.8752 H         1 <0>         0.0700
     46 H21        18.1425   -0.1287   18.2097 H         1 <0>         0.1000
     47 H22        16.9381    2.0853   18.1918 H         1 <0>         0.0800
     48 H23        16.3192    0.9423   16.9749 H         1 <0>         0.0700
@<TRIPOS>BOND
     1    1    2 1
     2    1   26 1
     3    1   27 1
     4    1   28 1
     5    2    3 am
     6    2   15 1
     7    3    4 2
     8    3    5 1
     9    5   14 ar
    10    5    6 ar
    11    6    7 ar
    12    6   29 1
    13    7    8 ar
    14    7   30 1
    15    8   13 ar
    16    8    9 1
    17    9   10 am
    18    9   31 1
    19   10   11 2
    20   10   12 1
    21   12   13 1
    22   12   32 1
    23   12   33 1
    24   13   14 ar
    25   14   34 1
    26   15   25 1
    27   15   16 1
    28   15   35 1
    29   16   17 1
    30   16   36 1
    31   16   37 1
    32   17   18 1
    33   17   38 1
    34   17   39 1
    35   18   19 am
    36   18   24 1
    37   19   20 2
    38   19   21 1
    39   21   23 1
    40   21   22 1
    41   21   40 1
    42   22   23 1
    43   22   41 1
    44   22   42 1
    45   23   43 1
    46   23   44 1
    47   24   25 1
    48   24   45 1
    49   24   46 1
    50   25   47 1
    51   25   48 1
##########                 Name:            smyd3_771
##########          Protonation:                 none
##########               SMILES:   CC(C)C(=O)N1CCC(NC(=O)C2=CC=C3NC(=O)CC3=C2)C(C)C1
##########            Long Name:   NO_LONG_NAME
##########          FlexRecCode: 1
##########               Number:                 2061
##########   Ligand Source File: /proj/zinc22/users/x_andlu/OGG1/revisions/docking/targets/smyd3/db2gen/split_par
##########                 Rank:                    1
##########               Setnum:                   17
##########             Matchnum:                    8
##########                Cloud:                    1
##########        Electrostatic:           -10.660413
##########                 Gist:             0.000000
##########        Van der Waals:           -31.984562
##########  Ligand Polar Desolv:             6.815923
########## Ligand Apolar Desolv:            -2.694287
##########      Internal Energy:             0.000000
##########      Receptor Energy:             0.000000
########## Receptor Desolvation:             0.000000
########## Receptor Hydrophobic:             0.000000
##########         Total Energy:           -38.523338
##########        Ligand Charge:             0.000000
##########            Arbitrary:    +999.9990
##########        Ligand Energy:             0.000000

@<TRIPOS>MOLECULE
smyd3_771      none
   50    52     0     0     0
SMALL
USER_CHARGES

@<TRIPOS>ATOM
      1 C1         14.3717   -1.7548   17.9832 C.3       1 <0>        -0.1400
      2 C2         15.6130   -2.3236   17.2929 C.3       1 <0>        -0.1200
      3 C3         15.3841   -3.8012   16.9683 C.3       1 <0>        -0.1400
      4 C4         15.8715   -1.5634   16.0177 C.2       1 <0>         0.5200
      5 O1         15.8724   -2.1460   14.9538 O.2       1 <0>        -0.5400
      6 N1         16.1015   -0.2360   16.0592 N.am      1 <0>        -0.6200
      7 C5         15.7179    0.6257   14.9328 C.3       1 <0>         0.1100
      8 C6         16.9417    1.4350   14.4920 C.3       1 <0>        -0.1500
      9 C7         17.5098    2.1898   15.6960 C.3       1 <0>         0.1500
     10 N2         16.4792    3.0717   16.2496 N.am      1 <0>        -0.7200
     11 C8         16.3602    4.3359   15.7975 C.2       1 <0>         0.5700
     12 O2         17.1081    4.7443   14.9302 O.2       1 <0>        -0.5300
     13 C9         15.3221    5.2245   16.3553 C.ar      1 <0>        -0.1600
     14 C10        14.8523    5.0275   17.6565 C.ar      1 <0>        -0.0500
     15 C11        13.8884    5.8585   18.1777 C.ar      1 <0>        -0.1500
     16 C12        13.3635    6.8989   17.4085 C.ar      1 <0>         0.1700
     17 N3         12.3946    7.8498   17.7113 N.am      1 <0>        -0.6600
     18 C13        12.1655    8.6902   16.6886 C.2       1 <0>         0.5300
     19 O3         11.3766    9.6114   16.6764 O.2       1 <0>        -0.4900
     20 C14        13.0775    8.2725   15.5548 C.3       1 <0>        -0.1200
     21 C15        13.8321    7.0864   16.1108 C.ar      1 <0>        -0.1500
     22 C16        14.7972    6.2662   15.5832 C.ar      1 <0>        -0.0000
     23 C17        17.9523    1.1886   16.7654 C.3       1 <0>        -0.1100
     24 C18        18.5503    1.9429   17.9548 C.3       1 <0>        -0.1500
     25 C19        16.7400    0.3767   17.2321 C.3       1 <0>         0.1100
     26 H1         14.5348   -0.7022   18.2144 H         1 <0>         0.0700
     27 H2         13.5112   -1.8523   17.3213 H         1 <0>         0.0700
     28 H3         14.1848   -2.3047   18.9056 H         1 <0>         0.0600
     29 H4         16.4736   -2.2261   17.9548 H         1 <0>         0.0900
     30 H5         16.2685   -4.2063   16.4766 H         1 <0>         0.0600
     31 H6         15.1973   -4.3512   17.8907 H         1 <0>         0.0700
     32 H7         14.5235   -3.8986   16.3065 H         1 <0>         0.0700
     33 H8         15.3690    0.0100   14.1038 H         1 <0>         0.0900
     34 H9         14.9227    1.3029   15.2450 H         1 <0>         0.0700
     35 H10        16.6482    2.1475   13.7213 H         1 <0>         0.0900
     36 H11        17.7000    0.7603   14.0947 H         1 <0>         0.0800
     37 H12        18.3661    2.7856   15.3797 H         1 <0>         0.1000
     38 H13        15.8801    2.7447   16.9387 H         1 <0>         0.4000
     39 H14        15.2501    4.2223   18.2562 H         1 <0>         0.1300
     40 H15        13.5326    5.7029   19.1854 H         1 <0>         0.1400
     41 H16        11.9358    7.9001   18.5645 H         1 <0>         0.4200
     42 H17        13.7659    9.0787   15.3012 H         1 <0>         0.1300
     43 H18        12.4933    7.9791   14.6826 H         1 <0>         0.1300
     44 H19        15.1503    6.4241   14.5749 H         1 <0>         0.1500
     45 H20        18.7013    0.5163   16.3468 H         1 <0>         0.0900
     46 H21        18.8653    1.2293   18.7163 H         1 <0>         0.0600
     47 H22        19.4111    2.5227   17.6218 H         1 <0>         0.0600
     48 H23        17.8003    2.6137   18.3737 H         1 <0>         0.0600
     49 H24        17.0656   -0.4035   17.9202 H         1 <0>         0.1000
     50 H25        16.0312    1.0347   17.7347 H         1 <0>         0.0600
@<TRIPOS>BOND
     1    1    2 1
     2    1   26 1
     3    1   27 1
     4    1   28 1
     5    2    3 1
     6    2    4 1
     7    2   29 1
     8    3   30 1
     9    3   31 1
    10    3   32 1
    11    4    5 2
    12    4    6 am
    13    6   25 1
    14    6    7 1
    15    7    8 1
    16    7   33 1
    17    7   34 1
    18    8    9 1
    19    8   35 1
    20    8   36 1
    21    9   10 1
    22    9   23 1
    23    9   37 1
    24   10   11 am
    25   10   38 1
    26   11   12 2
    27   11   13 1
    28   13   22 ar
    29   13   14 ar
    30   14   15 ar
    31   14   39 1
    32   15   16 ar
    33   15   40 1
    34   16   21 ar
    35   16   17 1
    36   17   18 am
    37   17   41 1
    38   18   19 2
    39   18   20 1
    40   20   21 1
    41   20   42 1
    42   20   43 1
    43   21   22 ar
    44   22   44 1
    45   23   24 1
    46   23   25 1
    47   23   45 1
    48   24   46 1
    49   24   47 1
    50   24   48 1
    51   25   49 1
    52   25   50 1
##########                 Name:            smyd3_776
##########          Protonation:                 none
##########               SMILES:   CC1CN(C(=O)C2CC2)CCC1NC(=O)C1=CC=C2NC(=O)CC2=C1
##########            Long Name:   NO_LONG_NAME
##########          FlexRecCode: 1
##########               Number:                 2072
##########   Ligand Source File: /proj/zinc22/users/x_andlu/OGG1/revisions/docking/targets/smyd3/db2gen/split_par
##########                 Rank:                    1
##########               Setnum:                   17
##########             Matchnum:                   17
##########                Cloud:                    1
##########        Electrostatic:           -16.484816
##########                 Gist:             0.000000
##########        Van der Waals:           -31.629131
##########  Ligand Polar Desolv:             6.110232
########## Ligand Apolar Desolv:            -2.191331
##########      Internal Energy:             0.000000
##########      Receptor Energy:             0.000000
########## Receptor Desolvation:             0.000000
########## Receptor Hydrophobic:             0.000000
##########         Total Energy:           -44.195042
##########        Ligand Charge:             0.000000
##########            Arbitrary:    +999.9990
##########        Ligand Energy:             0.000000

@<TRIPOS>MOLECULE
smyd3_776      none
   48    51     0     0     0
SMALL
USER_CHARGES

@<TRIPOS>ATOM
      1 C1         19.5532    4.3328   16.0213 C.3       1 <0>        -0.1500
      2 C2         19.1843    2.8488   16.0745 C.3       1 <0>        -0.1100
      3 C3         20.2347    2.0333   15.3140 C.3       1 <0>         0.1200
      4 N1         19.7990    0.6311   15.2631 N.am      1 <0>        -0.6100
      5 C4         20.6119   -0.3564   15.6880 C.2       1 <0>         0.5500
      6 O1         21.7148   -0.0914   16.1175 O.2       1 <0>        -0.5400
      7 C5         20.1505   -1.7897   15.6294 C.3       1 <0>        -0.2000
      8 C6         21.2253   -2.8745   15.5330 C.3       1 <0>        -0.1500
      9 C7         20.3579   -2.5455   14.3152 C.3       1 <0>        -0.1500
     10 C8         18.4601    0.3259   14.7406 C.3       1 <0>         0.1100
     11 C9         17.4295    1.1604   15.5076 C.3       1 <0>        -0.1500
     12 C10        17.8141    2.6396   15.4257 C.3       1 <0>         0.1500
     13 N2         16.8126    3.4440   16.1302 N.am      1 <0>        -0.7200
     14 C11        16.1181    4.3886   15.4655 C.2       1 <0>         0.5700
     15 O2         16.3227    4.5733   14.2813 O.2       1 <0>        -0.5300
     16 C12        15.1091    5.1991   16.1753 C.ar      1 <0>        -0.1600
     17 C13        14.4590    4.6858   17.3006 C.ar      1 <0>        -0.0500
     18 C14        13.5225    5.4430   17.9646 C.ar      1 <0>        -0.1500
     19 C15        13.2054    6.7261   17.5143 C.ar      1 <0>         0.1700
     20 N3         12.3038    7.6627   18.0090 N.am      1 <0>        -0.6600
     21 C16        12.2916    8.7935   17.2838 C.2       1 <0>         0.5300
     22 O3         11.6052    9.7724   17.4877 O.2       1 <0>        -0.4900
     23 C17        13.2962    8.6171   16.1651 C.3       1 <0>        -0.1200
     24 C18        13.8531    7.2296   16.3892 C.ar      1 <0>        -0.1500
     25 C19        14.7927    6.4844   15.7228 C.ar      1 <0>        -0.0000
     26 H1         20.5290    4.4814   16.4833 H         1 <0>         0.0600
     27 H2         19.5891    4.6611   14.9825 H         1 <0>         0.0600
     28 H3         18.8039    4.9129   16.5600 H         1 <0>         0.0600
     29 H4         19.1494    2.5190   17.1128 H         1 <0>         0.0800
     30 H5         20.3353    2.4217   14.3003 H         1 <0>         0.0700
     31 H6         21.1933    2.1020   15.8283 H         1 <0>         0.1000
     32 H7         19.2543   -2.0191   16.2058 H         1 <0>         0.1300
     33 H8         22.2661   -2.5513   15.5118 H         1 <0>         0.1000
     34 H9         21.0361   -3.8176   16.0456 H         1 <0>         0.1100
     35 H10        19.5984   -3.2724   14.0274 H         1 <0>         0.1000
     36 H11        20.8276   -2.0058   13.4930 H         1 <0>         0.1100
     37 H12        18.4159    0.5750   13.6804 H         1 <0>         0.0700
     38 H13        18.2482   -0.7347   14.8759 H         1 <0>         0.0900
     39 H14        17.4112    0.8466   16.5512 H         1 <0>         0.0700
     40 H15        16.4433    1.0160   15.0664 H         1 <0>         0.0900
     41 H16        17.8563    2.9462   14.3806 H         1 <0>         0.0900
     42 H17        16.6465    3.2939   17.0740 H         1 <0>         0.4000
     43 H18        14.6954    3.6925   17.6524 H         1 <0>         0.1300
     44 H19        13.0267    5.0414   18.8359 H         1 <0>         0.1400
     45 H20        11.7464    7.5156   18.7890 H         1 <0>         0.4200
     46 H21        14.0873    9.3631   16.2408 H         1 <0>         0.1300
     47 H22        12.8029    8.6788   15.1951 H         1 <0>         0.1300
     48 H23        15.2862    6.8887   14.8514 H         1 <0>         0.1400
@<TRIPOS>BOND
     1    1    2 1
     2    1   26 1
     3    1   27 1
     4    1   28 1
     5    2   12 1
     6    2    3 1
     7    2   29 1
     8    3    4 1
     9    3   30 1
    10    3   31 1
    11    4    5 am
    12    4   10 1
    13    5    6 2
    14    5    7 1
    15    7    9 1
    16    7    8 1
    17    7   32 1
    18    8    9 1
    19    8   33 1
    20    8   34 1
    21    9   35 1
    22    9   36 1
    23   10   11 1
    24   10   37 1
    25   10   38 1
    26   11   12 1
    27   11   39 1
    28   11   40 1
    29   12   13 1
    30   12   41 1
    31   13   14 am
    32   13   42 1
    33   14   15 2
    34   14   16 1
    35   16   25 ar
    36   16   17 ar
    37   17   18 ar
    38   17   43 1
    39   18   19 ar
    40   18   44 1
    41   19   24 ar
    42   19   20 1
    43   20   21 am
    44   20   45 1
    45   21   22 2
    46   21   23 1
    47   23   24 1
    48   23   46 1
    49   23   47 1
    50   24   25 ar
    51   25   48 1
##########                 Name:            smyd3_800
##########          Protonation:                 none
##########               SMILES:   O=C(NC1CC[NH2+]C2(CCCC2)C1)C1=CC2=C(C=C1)NC(=O)C21CC1
##########            Long Name:   NO_LONG_NAME
##########          FlexRecCode: 1
##########               Number:                 2130
##########   Ligand Source File: /proj/zinc22/users/x_andlu/OGG1/revisions/docking/targets/smyd3/db2gen/split_par
##########                 Rank:                    1
##########               Setnum:                   15
##########             Matchnum:                    9
##########                Cloud:                    1
##########        Electrostatic:           -18.209196
##########                 Gist:             0.000000
##########        Van der Waals:           -24.733809
##########  Ligand Polar Desolv:            10.989305
########## Ligand Apolar Desolv:            -2.710767
##########      Internal Energy:             0.000000
##########      Receptor Energy:             0.000000
########## Receptor Desolvation:             0.000000
########## Receptor Hydrophobic:             0.000000
##########         Total Energy:           -34.664467
##########        Ligand Charge:             1.000000
##########            Arbitrary:    +999.9990
##########        Ligand Energy:             0.000000

@<TRIPOS>MOLECULE
smyd3_800      none
   51    55     0     0     0
SMALL
USER_CHARGES

@<TRIPOS>ATOM
      1 O1         15.4567    2.9911   15.1565 O.2       1 <0>        -0.5300
      2 C1         15.9159    3.7695   15.9701 C.2       1 <0>         0.5700
      3 N1         17.2470    3.8225   16.1751 N.am      1 <0>        -0.7300
      4 C2         18.1404    2.9426   15.4177 C.3       1 <0>         0.1400
      5 C3         19.1271    3.7886   14.6077 C.3       1 <0>        -0.1600
      6 C4         20.1026    2.8649   13.8752 C.3       1 <0>        -0.0100
      7 N2         20.8449    2.0579   14.8518 N.4       1 <0>        -0.5000
      8 H1         21.5176    1.4820   14.3683 H         1 <0>         0.4300
      9 H2         21.3269    2.6688   15.4941 H         1 <0>         0.4300
     10 C5         19.9195    1.2026   15.5981 C.3       1 <0>         0.0600
     11 C6         20.7081    0.2975   16.5631 C.3       1 <0>        -0.1400
     12 C7         19.9417   -1.0487   16.5309 C.3       1 <0>        -0.1200
     13 C8         19.5235   -1.1693   15.0442 C.3       1 <0>        -0.1300
     14 C9         19.1659    0.2747   14.6331 C.3       1 <0>        -0.1400
     15 C10        18.9227    2.0500   16.3863 C.3       1 <0>        -0.1400
     16 C11        15.0158    4.6559   16.7330 C.ar      1 <0>        -0.1700
     17 C12        14.6854    5.9206   16.2358 C.ar      1 <0>         0.0000
     18 C13        13.8481    6.7391   16.9517 C.ar      1 <0>        -0.1100
     19 C14        13.3185    6.3275   18.1737 C.ar      1 <0>         0.1900
     20 C15        13.6498    5.0642   18.6677 C.ar      1 <0>        -0.1500
     21 C16        14.4880    4.2379   17.9578 C.ar      1 <0>        -0.0500
     22 N3         12.5042    7.3231   18.7053 N.am      1 <0>        -0.6600
     23 C17        12.4403    8.4091   17.9131 C.2       1 <0>         0.5600
     24 O2         11.8056    9.4210   18.1229 O.2       1 <0>        -0.4800
     25 C18        13.3046    8.1226   16.7114 C.3       1 <0>        -0.1600
     26 C19        14.1365    9.2101   16.0437 C.3       1 <0>        -0.1200
     27 C20        12.9289    8.6099   15.3181 C.3       1 <0>        -0.1200
     28 H3         17.6133    4.4434   16.8240 H         1 <0>         0.4100
     29 H4         17.5532    2.3206   14.7422 H         1 <0>         0.1100
     30 H5         18.5800    4.3896   13.8812 H         1 <0>         0.1200
     31 H6         19.6813    4.4442   15.2794 H         1 <0>         0.0900
     32 H7         19.5470    2.2064   13.2076 H         1 <0>         0.1400
     33 H8         20.8028    3.4645   13.2935 H         1 <0>         0.1400
     34 H9         21.7307    0.1631   16.2106 H         1 <0>         0.0900
     35 H10        20.7023    0.7161   17.5696 H         1 <0>         0.1000
     36 H11        19.0645   -1.0093   17.1768 H         1 <0>         0.0800
     37 H12        20.5959   -1.8725   16.8160 H         1 <0>         0.0900
     38 H13        18.6552   -1.8205   14.9437 H         1 <0>         0.0900
     39 H14        20.3514   -1.5434   14.4420 H         1 <0>         0.0800
     40 H15        18.0914    0.4340   14.7241 H         1 <0>         0.1000
     41 H16        19.4857    0.4623   13.6080 H         1 <0>         0.0900
     42 H17        19.4612    2.6726   17.1007 H         1 <0>         0.1000
     43 H18        18.2308    1.3982   16.9199 H         1 <0>         0.1200
     44 H19        15.0881    6.2522   15.2902 H         1 <0>         0.1400
     45 H20        13.2457    4.7348   19.6137 H         1 <0>         0.1400
     46 H21        14.7395    3.2625   18.3475 H         1 <0>         0.1300
     47 H22        12.0360    7.2433   19.5511 H         1 <0>         0.4200
     48 H23        14.0397   10.2256   16.4279 H         1 <0>         0.1200
     49 H24        15.1280    8.9357   15.6834 H         1 <0>         0.1100
     50 H25        13.1261    7.9409   14.4804 H         1 <0>         0.1100
     51 H26        12.0378    9.2307   15.2249 H         1 <0>         0.1200
@<TRIPOS>BOND
     1    1    2 2
     2    2    3 am
     3    2   16 1
     4    3    4 1
     5    3   28 1
     6    4   15 1
     7    4    5 1
     8    4   29 1
     9    5    6 1
    10    5   30 1
    11    5   31 1
    12    6    7 1
    13    6   32 1
    14    6   33 1
    15    7    8 1
    16    7    9 1
    17    7   10 1
    18   10   14 1
    19   10   11 1
    20   10   15 1
    21   11   12 1
    22   11   34 1
    23   11   35 1
    24   12   13 1
    25   12   36 1
    26   12   37 1
    27   13   14 1
    28   13   38 1
    29   13   39 1
    30   14   40 1
    31   14   41 1
    32   15   42 1
    33   15   43 1
    34   16   21 ar
    35   16   17 ar
    36   17   18 ar
    37   17   44 1
    38   18   25 1
    39   18   19 ar
    40   19   20 ar
    41   19   22 1
    42   20   21 ar
    43   20   45 1
    44   21   46 1
    45   22   23 am
    46   22   47 1
    47   23   24 2
    48   23   25 1
    49   25   27 1
    50   25   26 1
    51   26   27 1
    52   26   48 1
    53   26   49 1
    54   27   50 1
    55   27   51 1
##########                 Name:            smyd3_810
##########          Protonation:                 none
##########               SMILES:   O=C1CC2=C(C=CC(C(=O)NC3CC4CCCC(C3)[NH+]4C3CC3)=C2)N1
##########            Long Name:   NO_LONG_NAME
##########          FlexRecCode: 1
##########               Number:                 2151
##########   Ligand Source File: /proj/zinc22/users/x_andlu/OGG1/revisions/docking/targets/smyd3/db2gen/split_par
##########                 Rank:                    1
##########               Setnum:                    1
##########             Matchnum:                    8
##########                Cloud:                    1
##########        Electrostatic:           -21.947948
##########                 Gist:             0.000000
##########        Van der Waals:           -33.447647
##########  Ligand Polar Desolv:             7.411040
########## Ligand Apolar Desolv:            -2.606907
##########      Internal Energy:             0.000000
##########      Receptor Energy:             0.000000
########## Receptor Desolvation:             0.000000
########## Receptor Hydrophobic:             0.000000
##########         Total Energy:           -50.591461
##########        Ligand Charge:             1.000000
##########            Arbitrary:    +999.9990
##########        Ligand Energy:             0.000000

@<TRIPOS>MOLECULE
smyd3_810      none
   51    55     0     0     0
SMALL
USER_CHARGES

@<TRIPOS>ATOM
      1 O1         11.2585   10.1882   16.5015 O.2       1 <0>        -0.4800
      2 C1         11.9141    9.1744   16.6157 C.2       1 <0>         0.5300
      3 C2         12.9147    8.6333   15.6166 C.3       1 <0>        -0.1200
      4 C3         13.4267    7.3657   16.2620 C.ar      1 <0>        -0.1500
      5 C4         12.7615    7.2514   17.4795 C.ar      1 <0>         0.1900
      6 C5         13.0369    6.1592   18.3054 C.ar      1 <0>        -0.1500
      7 C6         13.9574    5.2132   17.9214 C.ar      1 <0>        -0.0500
      8 C7         14.6187    5.3316   16.6957 C.ar      1 <0>        -0.1800
      9 C8         15.6029    4.3130   16.2806 C.2       1 <0>         0.5800
     10 O2         16.1781    4.4221   15.2150 O.2       1 <0>        -0.5300
     11 N1         15.8640    3.2620   17.0828 N.am      1 <0>        -0.7300
     12 C9         16.8430    2.2489   16.6699 C.3       1 <0>         0.1400
     13 C10        16.1542    1.2190   15.7733 C.3       1 <0>        -0.1600
     14 C11        17.1232    0.0809   15.4428 C.3       1 <0>         0.0400
     15 C12        16.5427   -1.2397   15.9425 C.3       1 <0>        -0.1300
     16 C13        16.4299   -1.2160   17.4678 C.3       1 <0>        -0.1400
     17 C14        17.7967   -0.8975   18.0769 C.3       1 <0>        -0.1400
     18 C15        18.3319    0.4108   17.4999 C.3       1 <0>         0.0400
     19 C16        17.4117    1.5623   17.9127 C.3       1 <0>        -0.1500
     20 N2         18.4276    0.3524   16.0427 N.4       1 <0>        -0.3500
     21 H1         18.7517    1.2570   15.7074 H         1 <0>         0.4200
     22 C17        19.4124   -0.6547   15.6257 C.3       1 <0>        -0.0800
     23 C18        20.7233   -0.1517   15.0178 C.3       1 <0>        -0.1500
     24 C19        19.6695   -0.8128   14.1259 C.3       1 <0>        -0.1500
     25 C20        14.3438    6.4243   15.8672 C.ar      1 <0>         0.0000
     26 N3         11.8892    8.3208   17.6528 N.am      1 <0>        -0.6600
     27 H2         12.4253    8.4089   14.6689 H         1 <0>         0.1300
     28 H3         13.7277    9.3438   15.4670 H         1 <0>         0.1300
     29 H4         12.5275    6.0598   19.2525 H         1 <0>         0.1400
     30 H5         14.1680    4.3738   18.5675 H         1 <0>         0.1300
     31 H6         15.4052    3.1749   17.9329 H         1 <0>         0.4100
     32 H7         17.6472    2.7380   16.1189 H         1 <0>         0.0900
     33 H8         15.2799    0.8147   16.2831 H         1 <0>         0.1100
     34 H9         15.8373    1.6994   14.8458 H         1 <0>         0.1100
     35 H10        17.2380    0.0268   14.3580 H         1 <0>         0.1300
     36 H11        17.1607   -2.0764   15.6273 H         1 <0>         0.0900
     37 H12        15.5415   -1.3697   15.5159 H         1 <0>         0.1100
     38 H13        16.0930   -2.1925   17.8223 H         1 <0>         0.0900
     39 H14        15.7062   -0.4594   17.7717 H         1 <0>         0.0800
     40 H15        18.4884   -1.7141   17.8870 H         1 <0>         0.0900
     41 H16        17.6833   -0.7857   19.1610 H         1 <0>         0.1100
     42 H17        19.3262    0.5962   17.9118 H         1 <0>         0.1400
     43 H18        17.9840    2.2853   18.4969 H         1 <0>         0.1100
     44 H19        16.5966    1.1748   18.5235 H         1 <0>         0.1100
     45 H20        19.4553   -1.5534   16.2412 H         1 <0>         0.1700
     46 H21        20.8549    0.9265   14.9273 H         1 <0>         0.1200
     47 H22        21.6284   -0.7196   15.2330 H         1 <0>         0.1300
     48 H23        19.8819   -1.8154   13.7545 H         1 <0>         0.1300
     49 H24        19.1076   -0.1698   13.4484 H         1 <0>         0.1200
     50 H25        14.8515    6.5267   14.9195 H         1 <0>         0.1500
     51 H26        11.3260    8.4368   18.4339 H         1 <0>         0.4200
@<TRIPOS>BOND
     1    1    2 2
     2    2   26 am
     3    2    3 1
     4    3    4 1
     5    3   27 1
     6    3   28 1
     7    4   25 ar
     8    4    5 ar
     9    5    6 ar
    10    5   26 1
    11    6    7 ar
    12    6   29 1
    13    7    8 ar
    14    7   30 1
    15    8    9 1
    16    8   25 ar
    17    9   10 2
    18    9   11 am
    19   11   12 1
    20   11   31 1
    21   12   19 1
    22   12   13 1
    23   12   32 1
    24   13   14 1
    25   13   33 1
    26   13   34 1
    27   14   20 1
    28   14   15 1
    29   14   35 1
    30   15   16 1
    31   15   36 1
    32   15   37 1
    33   16   17 1
    34   16   38 1
    35   16   39 1
    36   17   18 1
    37   17   40 1
    38   17   41 1
    39   18   19 1
    40   18   20 1
    41   18   42 1
    42   19   43 1
    43   19   44 1
    44   20   21 1
    45   20   22 1
    46   22   24 1
    47   22   23 1
    48   22   45 1
    49   23   24 1
    50   23   46 1
    51   23   47 1
    52   24   48 1
    53   24   49 1
    54   25   50 1
    55   26   51 1
##########                 Name:            smyd3_818
##########          Protonation:                 none
##########               SMILES:   O=C1CC2=C(C=CC(C(=O)NC3CCN(C(=O)C4CCC4)CC3)=C2)N1
##########            Long Name:   NO_LONG_NAME
##########          FlexRecCode: 1
##########               Number:                 2174
##########   Ligand Source File: /proj/zinc22/users/x_andlu/OGG1/revisions/docking/targets/smyd3/db2gen/split_par
##########                 Rank:                    1
##########               Setnum:                   32
##########             Matchnum:                   16
##########                Cloud:                    1
##########        Electrostatic:           -19.473415
##########                 Gist:             0.000000
##########        Van der Waals:           -32.767834
##########  Ligand Polar Desolv:             6.581003
########## Ligand Apolar Desolv:            -1.935878
##########      Internal Energy:             0.000000
##########      Receptor Energy:             0.000000
########## Receptor Desolvation:             0.000000
########## Receptor Hydrophobic:             0.000000
##########         Total Energy:           -47.596127
##########        Ligand Charge:             0.000000
##########            Arbitrary:    +999.9990
##########        Ligand Energy:             0.000000

@<TRIPOS>MOLECULE
smyd3_818      none
   48    51     0     0     0
SMALL
USER_CHARGES

@<TRIPOS>ATOM
      1 O1         11.5171   10.0691   16.8276 O.2       1 <0>        -0.4900
      2 C1         12.1549    9.0387   16.7829 C.2       1 <0>         0.5300
      3 C2         13.1286    8.6303   15.6980 C.3       1 <0>        -0.1200
      4 C3         13.6264    7.2747   16.1450 C.ar      1 <0>        -0.1500
      5 C4         12.9790    6.9975   17.3457 C.ar      1 <0>         0.1700
      6 C5         13.2470    5.7936   18.0012 C.ar      1 <0>        -0.1500
      7 C6         14.1352    4.8928   17.4630 C.ar      1 <0>        -0.0500
      8 C7         14.7859    5.1795   16.2597 C.ar      1 <0>        -0.1600
      9 C8         15.7435    4.2150   15.6843 C.2       1 <0>         0.5700
     10 O2         15.9294    4.1859   14.4831 O.2       1 <0>        -0.5300
     11 N1         16.4118    3.3664   16.4903 N.am      1 <0>        -0.7200
     12 C9         17.3623    2.4090   15.9191 C.3       1 <0>         0.1500
     13 C10        18.4710    2.1235   16.9347 C.3       1 <0>        -0.1400
     14 C11        19.4811    1.1487   16.3215 C.3       1 <0>         0.1100
     15 N2         18.7635   -0.0473   15.8594 N.am      1 <0>        -0.6100
     16 C12        19.1458   -1.2756   16.2614 C.2       1 <0>         0.5300
     17 O3         18.3256   -2.1634   16.3618 O.2       1 <0>        -0.5400
     18 C13        20.5923   -1.5459   16.5861 C.3       1 <0>        -0.1400
     19 C14        21.5770   -0.8927   15.6019 C.3       1 <0>        -0.1200
     20 C15        22.4047   -2.1855   15.6944 C.3       1 <0>        -0.1400
     21 C16        21.0968   -2.9029   16.0679 C.3       1 <0>        -0.1200
     22 C17        17.6250    0.1208   14.9460 C.3       1 <0>         0.1100
     23 C18        16.6323    1.1076   15.5790 C.3       1 <0>        -0.1500
     24 C19        14.5188    6.3846   15.6020 C.ar      1 <0>        -0.0000
     25 N3         12.1304    8.0453   17.6870 N.am      1 <0>        -0.6600
     26 H1         13.9540    9.3398   15.6383 H         1 <0>         0.1300
     27 H2         12.6198    8.5527   14.7372 H         1 <0>         0.1300
     28 H3         12.7508    5.5673   18.9334 H         1 <0>         0.1400
     29 H4         14.3340    3.9622   17.9738 H         1 <0>         0.1300
     30 H5         16.2636    3.3897   17.4486 H         1 <0>         0.4000
     31 H6         17.7992    2.8279   15.0127 H         1 <0>         0.0900
     32 H7         18.0375    1.6817   17.8320 H         1 <0>         0.0700
     33 H8         18.9751    3.0545   17.1942 H         1 <0>         0.0800
     34 H9         20.2178    0.8651   17.0731 H         1 <0>         0.1000
     35 H10        19.9833    1.6222   15.4779 H         1 <0>         0.0700
     36 H11        20.8340   -1.3609   17.6327 H         1 <0>         0.1100
     37 H12        22.0856   -0.0185   16.0085 H         1 <0>         0.0700
     38 H13        21.1533   -0.7154   14.6134 H         1 <0>         0.0900
     39 H14        22.8215   -2.5064   14.7398 H         1 <0>         0.0700
     40 H15        23.1419   -2.1754   16.4973 H         1 <0>         0.0800
     41 H16        20.5418   -3.2752   15.2067 H         1 <0>         0.0900
     42 H17        21.2181   -3.6527   16.8497 H         1 <0>         0.0800
     43 H18        17.9769    0.5136   13.9920 H         1 <0>         0.0800
     44 H19        17.1368   -0.8411   14.7897 H         1 <0>         0.0900
     45 H20        16.2161    0.6753   16.4890 H         1 <0>         0.0700
     46 H21        15.8278    1.3154   14.8735 H         1 <0>         0.0800
     47 H22        15.0130    6.6138   14.6695 H         1 <0>         0.1400
     48 H23        11.5826    8.0575   18.4875 H         1 <0>         0.4200
@<TRIPOS>BOND
     1    1    2 2
     2    2   25 am
     3    2    3 1
     4    3    4 1
     5    3   26 1
     6    3   27 1
     7    4   24 ar
     8    4    5 ar
     9    5    6 ar
    10    5   25 1
    11    6    7 ar
    12    6   28 1
    13    7    8 ar
    14    7   29 1
    15    8    9 1
    16    8   24 ar
    17    9   10 2
    18    9   11 am
    19   11   12 1
    20   11   30 1
    21   12   23 1
    22   12   13 1
    23   12   31 1
    24   13   14 1
    25   13   32 1
    26   13   33 1
    27   14   15 1
    28   14   34 1
    29   14   35 1
    30   15   16 am
    31   15   22 1
    32   16   17 2
    33   16   18 1
    34   18   21 1
    35   18   19 1
    36   18   36 1
    37   19   20 1
    38   19   37 1
    39   19   38 1
    40   20   21 1
    41   20   39 1
    42   20   40 1
    43   21   41 1
    44   21   42 1
    45   22   23 1
    46   22   43 1
    47   22   44 1
    48   23   45 1
    49   23   46 1
    50   24   47 1
    51   25   48 1
##########                 Name:            smyd3_819
##########          Protonation:                 none
##########               SMILES:   CC(C)CC(=O)N1CCC(NC(=O)C2=CC=C3NC(=O)CC3=C2)CC1
##########            Long Name:   NO_LONG_NAME
##########          FlexRecCode: 1
##########               Number:                 2176
##########   Ligand Source File: /proj/zinc22/users/x_andlu/OGG1/revisions/docking/targets/smyd3/db2gen/split_par
##########                 Rank:                    1
##########               Setnum:                   95
##########             Matchnum:                    6
##########                Cloud:                    1
##########        Electrostatic:           -19.206646
##########                 Gist:             0.000000
##########        Van der Waals:           -32.961758
##########  Ligand Polar Desolv:             6.468703
########## Ligand Apolar Desolv:            -1.989819
##########      Internal Energy:             0.000000
##########      Receptor Energy:             0.000000
########## Receptor Desolvation:             0.000000
########## Receptor Hydrophobic:             0.000000
##########         Total Energy:           -47.689518
##########        Ligand Charge:             0.000000
##########            Arbitrary:    +999.9990
##########        Ligand Energy:             0.000000

@<TRIPOS>MOLECULE
smyd3_819      none
   50    52     0     0     0
SMALL
USER_CHARGES

@<TRIPOS>ATOM
      1 C1         22.4929   -2.4613   16.1165 C.3       1 <0>        -0.1500
      2 C2         21.6800   -2.1489   14.8586 C.3       1 <0>        -0.0800
      3 C3         21.5854   -3.4033   13.9877 C.3       1 <0>        -0.1500
      4 C4         20.2735   -1.6989   15.2590 C.3       1 <0>        -0.1400
      5 C5         20.3666   -0.4633   16.1168 C.2       1 <0>         0.5200
      6 O1         20.9730   -0.4981   17.1665 O.2       1 <0>        -0.5300
      7 N1         19.7760    0.6804   15.7173 N.am      1 <0>        -0.6200
      8 C6         20.3326    1.9845   16.1023 C.3       1 <0>         0.1100
      9 C7         19.2297    2.8149   16.7662 C.3       1 <0>        -0.1400
     10 C8         18.0243    2.8985   15.8269 C.3       1 <0>         0.1500
     11 N2         16.9802    3.7197   16.4449 N.am      1 <0>        -0.7200
     12 C9         16.1376    4.4326   15.6713 C.2       1 <0>         0.5700
     13 O2         16.2441    4.3943   14.4608 O.2       1 <0>        -0.5300
     14 C10        15.0856    5.2597   16.2939 C.ar      1 <0>        -0.1600
     15 C11        14.5732    4.9194   17.5485 C.ar      1 <0>        -0.0500
     16 C12        13.5930    5.6902   18.1283 C.ar      1 <0>        -0.1500
     17 C13        13.1021    6.8193   17.4696 C.ar      1 <0>         0.1700
     18 N3         12.1293    7.7382   17.8492 N.am      1 <0>        -0.6600
     19 C14        11.9416    8.6954   16.9256 C.2       1 <0>         0.5300
     20 O3         11.1592    9.6193   16.9948 O.2       1 <0>        -0.4900
     21 C15        12.8903    8.4044   15.7821 C.3       1 <0>        -0.1200
     22 C16        13.6203    7.1543   16.2178 C.ar      1 <0>        -0.1500
     23 C17        14.5946    6.3903   15.6323 C.ar      1 <0>        -0.0000
     24 C18        17.4798    1.4921   15.5670 C.3       1 <0>        -0.1500
     25 C19        18.5628    0.6468   14.8891 C.3       1 <0>         0.1100
     26 H1         22.5603   -1.5677   16.7370 H         1 <0>         0.0500
     27 H2         22.0026   -3.2570   16.6775 H         1 <0>         0.0500
     28 H3         23.4949   -2.7819   15.8312 H         1 <0>         0.0700
     29 H4         22.1700   -1.3532   14.2975 H         1 <0>         0.0800
     30 H5         21.0064   -3.1807   13.0915 H         1 <0>         0.0500
     31 H6         22.5875   -3.7239   13.7025 H         1 <0>         0.0600
     32 H7         21.0954   -4.1990   14.5487 H         1 <0>         0.0500
     33 H8         19.7834   -2.4946   15.8200 H         1 <0>         0.0900
     34 H9         19.6943   -1.4763   14.3628 H         1 <0>         0.0900
     35 H10        20.6964    2.5028   15.2151 H         1 <0>         0.0700
     36 H11        21.1543    1.8407   16.8040 H         1 <0>         0.1000
     37 H12        19.6027    3.8186   16.9697 H         1 <0>         0.0800
     38 H13        18.9301    2.3415   17.7012 H         1 <0>         0.0700
     39 H14        18.3301    3.3498   14.8831 H         1 <0>         0.0900
     40 H15        16.8952    3.7502   17.4106 H         1 <0>         0.4000
     41 H16        14.9479    4.0478   18.0645 H         1 <0>         0.1300
     42 H17        13.2012    5.4212   19.0980 H         1 <0>         0.1400
     43 H18        11.6417    7.6930   18.6865 H         1 <0>         0.4200
     44 H19        12.3351    8.2218   14.8620 H         1 <0>         0.1300
     45 H20        13.5907    9.2286   15.6475 H         1 <0>         0.1300
     46 H21        14.9837    6.6618   14.6621 H         1 <0>         0.1400
     47 H22        17.1971    1.0308   16.5131 H         1 <0>         0.0700
     48 H23        16.6072    1.5543   14.9169 H         1 <0>         0.0800
     49 H24        18.7822    1.0561   13.9030 H         1 <0>         0.0800
     50 H25        18.2170   -0.3820   14.7891 H         1 <0>         0.0900
@<TRIPOS>BOND
     1    1    2 1
     2    1   26 1
     3    1   27 1
     4    1   28 1
     5    2    3 1
     6    2    4 1
     7    2   29 1
     8    3   30 1
     9    3   31 1
    10    3   32 1
    11    4    5 1
    12    4   33 1
    13    4   34 1
    14    5    6 2
    15    5    7 am
    16    7   25 1
    17    7    8 1
    18    8    9 1
    19    8   35 1
    20    8   36 1
    21    9   10 1
    22    9   37 1
    23    9   38 1
    24   10   11 1
    25   10   24 1
    26   10   39 1
    27   11   12 am
    28   11   40 1
    29   12   13 2
    30   12   14 1
    31   14   23 ar
    32   14   15 ar
    33   15   16 ar
    34   15   41 1
    35   16   17 ar
    36   16   42 1
    37   17   22 ar
    38   17   18 1
    39   18   19 am
    40   18   43 1
    41   19   20 2
    42   19   21 1
    43   21   22 1
    44   21   44 1
    45   21   45 1
    46   22   23 ar
    47   23   46 1
    48   24   25 1
    49   24   47 1
    50   24   48 1
    51   25   49 1
    52   25   50 1
##########                 Name:            smyd3_820
##########          Protonation:                 none
##########               SMILES:   COCCC(=O)N1CCC(NC(=O)C2=CC=C3NC(=O)CC3=C2)CC1
##########            Long Name:   NO_LONG_NAME
##########          FlexRecCode: 1
##########               Number:                 2178
##########   Ligand Source File: /proj/zinc22/users/x_andlu/OGG1/revisions/docking/targets/smyd3/db2gen/split_par
##########                 Rank:                    1
##########               Setnum:                   69
##########             Matchnum:                    2
##########                Cloud:                    1
##########        Electrostatic:           -18.322414
##########                 Gist:             0.000000
##########        Van der Waals:           -34.437279
##########  Ligand Polar Desolv:             6.682473
########## Ligand Apolar Desolv:            -1.309332
##########      Internal Energy:             0.000000
##########      Receptor Energy:             0.000000
########## Receptor Desolvation:             0.000000
########## Receptor Hydrophobic:             0.000000
##########         Total Energy:           -47.386555
##########        Ligand Charge:             0.000000
##########            Arbitrary:    +999.9990
##########        Ligand Energy:             0.000000

@<TRIPOS>MOLECULE
smyd3_820      none
   48    50     0     0     0
SMALL
USER_CHARGES

@<TRIPOS>ATOM
      1 C1         21.6845   -3.5833   18.3099 C.3       1 <0>         0.0300
      2 O1         20.5962   -2.8874   17.6990 O.3       1 <0>        -0.4000
      3 C2         20.5681   -2.9893   16.2736 C.3       1 <0>         0.0800
      4 C3         19.7187   -1.8545   15.6979 C.3       1 <0>        -0.1400
      5 C4         20.3154   -0.5290   16.0953 C.2       1 <0>         0.5200
      6 O2         21.3211   -0.4952   16.7723 O.2       1 <0>        -0.5400
      7 N1         19.7315    0.6191   15.6983 N.am      1 <0>        -0.6100
      8 C5         20.3014    1.9190   16.0777 C.3       1 <0>         0.1100
      9 C6         19.2098    2.7593   16.7479 C.3       1 <0>        -0.1400
     10 C7         17.9989    2.8517   15.8166 C.3       1 <0>         0.1500
     11 N2         16.9657    3.6821   16.4404 N.am      1 <0>        -0.7200
     12 C8         16.1239    4.4010   15.6716 C.2       1 <0>         0.5700
     13 O3         16.2219    4.3602   14.4604 O.2       1 <0>        -0.5300
     14 C9         15.0829    5.2375   16.3001 C.ar      1 <0>        -0.1600
     15 C10        14.5761    4.9030   17.5585 C.ar      1 <0>        -0.0500
     16 C11        13.6061    5.6827   18.1438 C.ar      1 <0>        -0.1500
     17 C12        13.1201    6.8149   17.4869 C.ar      1 <0>         0.1700
     18 N3         12.1575    7.7422   17.8718 N.am      1 <0>        -0.6600
     19 C13        11.9715    8.6997   16.9482 C.2       1 <0>         0.5300
     20 O4         11.1971    9.6301   17.0213 O.2       1 <0>        -0.4900
     21 C14        12.9100    8.3994   15.7987 C.3       1 <0>        -0.1200
     22 C15        13.6327    7.1440   16.2312 C.ar      1 <0>        -0.1500
     23 C16        14.5968    6.3713   15.6403 C.ar      1 <0>        -0.0000
     24 C17        17.4411    1.4494   15.5622 C.3       1 <0>        -0.1500
     25 C18        18.5126    0.5944   14.8782 C.3       1 <0>         0.1100
     26 H1         21.6351   -3.4572   19.3915 H         1 <0>         0.0900
     27 H2         21.6215   -4.6434   18.0646 H         1 <0>         0.0400
     28 H3         22.6271   -3.1801   17.9398 H         1 <0>         0.0400
     29 H4         20.1361   -3.9480   15.9867 H         1 <0>         0.0600
     30 H5         21.5831   -2.9168   15.8842 H         1 <0>         0.0600
     31 H6         18.7032   -1.9271   16.0873 H         1 <0>         0.1000
     32 H7         19.6972   -1.9321   14.6108 H         1 <0>         0.1000
     33 H8         20.6635    2.4332   15.1874 H         1 <0>         0.0700
     34 H9         21.1265    1.7694   16.7741 H         1 <0>         0.1000
     35 H10        19.5924    3.7602   16.9475 H         1 <0>         0.0900
     36 H11        18.9126    2.2896   17.6855 H         1 <0>         0.0700
     37 H12        18.3020    3.2992   14.8701 H         1 <0>         0.0900
     38 H13        16.8874    3.7146   17.4067 H         1 <0>         0.4000
     39 H14        14.9471    4.0291   18.0731 H         1 <0>         0.1300
     40 H15        13.2187    5.4181   19.1165 H         1 <0>         0.1400
     41 H16        11.6752    7.7021   18.7124 H         1 <0>         0.4200
     42 H17        12.3472    8.2202   14.8826 H         1 <0>         0.1300
     43 H18        13.6163    9.2177   15.6583 H         1 <0>         0.1300
     44 H19        14.9816    6.6383   14.6671 H         1 <0>         0.1400
     45 H20        17.1610    0.9917   16.5108 H         1 <0>         0.0700
     46 H21        16.5647    1.5179   14.9178 H         1 <0>         0.0900
     47 H22        18.7287    1.0005   13.8901 H         1 <0>         0.0800
     48 H23        18.1576   -0.4317   14.7819 H         1 <0>         0.0900
@<TRIPOS>BOND
     1    1    2 1
     2    1   26 1
     3    1   27 1
     4    1   28 1
     5    2    3 1
     6    3    4 1
     7    3   29 1
     8    3   30 1
     9    4    5 1
    10    4   31 1
    11    4   32 1
    12    5    6 2
    13    5    7 am
    14    7   25 1
    15    7    8 1
    16    8    9 1
    17    8   33 1
    18    8   34 1
    19    9   10 1
    20    9   35 1
    21    9   36 1
    22   10   11 1
    23   10   24 1
    24   10   37 1
    25   11   12 am
    26   11   38 1
    27   12   13 2
    28   12   14 1
    29   14   23 ar
    30   14   15 ar
    31   15   16 ar
    32   15   39 1
    33   16   17 ar
    34   16   40 1
    35   17   22 ar
    36   17   18 1
    37   18   19 am
    38   18   41 1
    39   19   20 2
    40   19   21 1
    41   21   22 1
    42   21   42 1
    43   21   43 1
    44   22   23 ar
    45   23   44 1
    46   24   25 1
    47   24   45 1
    48   24   46 1
    49   25   47 1
    50   25   48 1
##########                 Name:            smyd3_824
##########          Protonation:                 none
##########               SMILES:   CN1C=C[NH+]=C1N1CCC(NC(=O)C2=CC=C3NC(=O)CC3=C2)CC1
##########            Long Name:   NO_LONG_NAME
##########          FlexRecCode: 1
##########               Number:                 2188
##########   Ligand Source File: /proj/zinc22/users/x_andlu/OGG1/revisions/docking/targets/smyd3/db2gen/split_par
##########                 Rank:                    1
##########               Setnum:                   10
##########             Matchnum:                   19
##########                Cloud:                    1
##########        Electrostatic:           -22.314430
##########                 Gist:             0.000000
##########        Van der Waals:           -33.457115
##########  Ligand Polar Desolv:             6.984331
########## Ligand Apolar Desolv:            -2.236805
##########      Internal Energy:             0.000000
##########      Receptor Energy:             0.000000
########## Receptor Desolvation:             0.000000
########## Receptor Hydrophobic:             0.000000
##########         Total Energy:           -51.024021
##########        Ligand Charge:             1.000000
##########            Arbitrary:    +999.9990
##########        Ligand Energy:             0.000000

@<TRIPOS>MOLECULE
smyd3_824      none
   47    50     0     0     0
SMALL
USER_CHARGES

@<TRIPOS>ATOM
      1 C1         19.7351   -2.5489   17.0716 C.3       1 <0>         0.0600
      2 N1         20.6637   -1.8029   16.2186 N.pl3     1 <0>        -0.4200
      3 C2         21.8355   -2.2770   15.6733 C.2       1 <0>         0.0300
      4 C3         22.3756   -1.2686   14.9684 C.2       1 <0>         0.0100
      5 N2         21.5640   -0.2020   15.0671 N.pl3     1 <0>        -0.5100
      6 H1         21.7181    0.6609   14.6517 H         1 <0>         0.4600
      7 C4         20.5303   -0.5114   15.8133 C.cat     1 <0>         0.4900
      8 N3         19.4835    0.3353   16.1383 N.pl3     1 <0>        -0.4500
      9 C5         19.9510    1.7204   16.2783 C.3       1 <0>         0.0400
     10 C6         18.8026    2.5998   16.7780 C.3       1 <0>        -0.1300
     11 C7         17.6427    2.5313   15.7806 C.3       1 <0>         0.1400
     12 N4         16.5181    3.3251   16.2823 N.am      1 <0>        -0.7300
     13 C8         16.4175    4.6299   15.9601 C.2       1 <0>         0.5700
     14 O1         17.2600    5.1483   15.2532 O.2       1 <0>        -0.5300
     15 C9         15.2845    5.4295   16.4654 C.ar      1 <0>        -0.1700
     16 C10        14.6520    5.0770   17.6605 C.ar      1 <0>        -0.0500
     17 C11        13.5964    5.8222   18.1310 C.ar      1 <0>        -0.1500
     18 C12        13.1481    6.9372   17.4200 C.ar      1 <0>         0.1800
     19 N5         12.1170    7.8303   17.6918 N.am      1 <0>        -0.6600
     20 C13        12.0025    8.7813   16.7499 C.2       1 <0>         0.5300
     21 O2         11.1930    9.6842   16.7329 O.2       1 <0>        -0.4900
     22 C14        13.0734    8.5143   15.7136 C.3       1 <0>        -0.1200
     23 C15        13.7861    7.2845   16.2284 C.ar      1 <0>        -0.1500
     24 C16        14.8364    6.5460   15.7515 C.ar      1 <0>         0.0000
     25 C17        17.2066    1.0727   15.6164 C.3       1 <0>        -0.1300
     26 C18        18.4013    0.2376   15.1505 C.3       1 <0>         0.0500
     27 H2         20.1123   -3.5606   17.2213 H         1 <0>         0.1100
     28 H3         19.6453   -2.0484   18.0356 H         1 <0>         0.1200
     29 H4         18.7572   -2.5930   16.5924 H         1 <0>         0.1100
     30 H5         22.2449   -3.2694   15.7928 H         1 <0>         0.2300
     31 H6         23.3030   -1.3085   14.4163 H         1 <0>         0.2200
     32 H7         20.2951    2.0870   15.3113 H         1 <0>         0.0800
     33 H8         20.7730    1.7557   16.9934 H         1 <0>         0.1000
     34 H9         19.1457    3.6306   16.8668 H         1 <0>         0.1000
     35 H10        18.4669    2.2428   17.7515 H         1 <0>         0.0900
     36 H11        17.9665    2.9263   14.8177 H         1 <0>         0.1000
     37 H12        15.8459    2.9115   16.8462 H         1 <0>         0.4000
     38 H13        14.9931    4.2162   18.2163 H         1 <0>         0.1300
     39 H14        13.1120    5.5439   19.0552 H         1 <0>         0.1400
     40 H15        11.5454    7.7731   18.4733 H         1 <0>         0.4200
     41 H16        12.6231    8.3160   14.7410 H         1 <0>         0.1300
     42 H17        13.7622    9.3567   15.6501 H         1 <0>         0.1300
     43 H18        15.3182    6.8267   14.8266 H         1 <0>         0.1400
     44 H19        16.8460    0.6910   16.5716 H         1 <0>         0.0900
     45 H20        16.4094    1.0126   14.8754 H         1 <0>         0.1000
     46 H21        18.7526    0.6111   14.1887 H         1 <0>         0.0800
     47 H22        18.0978   -0.8041   15.0464 H         1 <0>         0.1000
@<TRIPOS>BOND
     1    1    2 1
     2    1   27 1
     3    1   28 1
     4    1   29 1
     5    2    7 1
     6    2    3 1
     7    3    4 2
     8    3   30 1
     9    4    5 1
    10    4   31 1
    11    5    6 1
    12    5    7 1
    13    7    8 1
    14    8   26 1
    15    8    9 1
    16    9   10 1
    17    9   32 1
    18    9   33 1
    19   10   11 1
    20   10   34 1
    21   10   35 1
    22   11   12 1
    23   11   25 1
    24   11   36 1
    25   12   13 am
    26   12   37 1
    27   13   14 2
    28   13   15 1
    29   15   24 ar
    30   15   16 ar
    31   16   17 ar
    32   16   38 1
    33   17   18 ar
    34   17   39 1
    35   18   23 ar
    36   18   19 1
    37   19   20 am
    38   19   40 1
    39   20   21 2
    40   20   22 1
    41   22   23 1
    42   22   41 1
    43   22   42 1
    44   23   24 ar
    45   24   43 1
    46   25   26 1
    47   25   44 1
    48   25   45 1
    49   26   46 1
    50   26   47 1
##########                 Name:            smyd3_825
##########          Protonation:                 none
##########               SMILES:   CN1N=NN=C1N1CCC(NC(=O)C2=CC=C3NC(=O)CC3=C2)CC1
##########            Long Name:   NO_LONG_NAME
##########          FlexRecCode: 1
##########               Number:                 2194
##########   Ligand Source File: /proj/zinc22/users/x_andlu/OGG1/revisions/docking/targets/smyd3/db2gen/split_par
##########                 Rank:                    1
##########               Setnum:                    8
##########             Matchnum:                   17
##########                Cloud:                    1
##########        Electrostatic:           -12.833091
##########                 Gist:             0.000000
##########        Van der Waals:           -32.685760
##########  Ligand Polar Desolv:             7.180407
########## Ligand Apolar Desolv:            -1.433567
##########      Internal Energy:             0.000000
##########      Receptor Energy:             0.000000
########## Receptor Desolvation:             0.000000
########## Receptor Hydrophobic:             0.000000
##########         Total Energy:           -39.772015
##########        Ligand Charge:             0.000000
##########            Arbitrary:    +999.9990
##########        Ligand Energy:             0.000000

@<TRIPOS>MOLECULE
smyd3_825      none
   44    47     0     0     0
SMALL
USER_CHARGES

@<TRIPOS>ATOM
      1 C1         19.7922   -2.5603   16.7966 C.3       1 <0>         0.0900
      2 N1         20.7755   -1.7808   16.0406 N.pl3     1 <0>        -0.3900
      3 N2         21.9571   -2.2495   15.4402 N.2       1 <0>        -0.0800
      4 N3         22.5233   -1.2321   14.8870 N.2       1 <0>        -0.0200
      5 N4         21.8192   -0.1744   15.0726 N.2       1 <0>        -0.3600
      6 C2         20.7398   -0.4558   15.7685 C.2       1 <0>         0.4200
      7 N5         19.7554    0.4364   16.1552 N.pl3     1 <0>        -0.4500
      8 C3         20.3257    1.7602   16.4362 C.3       1 <0>         0.0700
      9 C4         19.2371    2.6772   16.9985 C.3       1 <0>        -0.1300
     10 C5         18.1006    2.7964   15.9794 C.3       1 <0>         0.1400
     11 N6         17.0291    3.6264   16.5358 N.am      1 <0>        -0.7200
     12 C6         16.2524    4.3625   15.7165 C.2       1 <0>         0.5700
     13 O1         16.4408    4.3378   14.5157 O.2       1 <0>        -0.5300
     14 C7         15.1729    5.1984   16.2772 C.ar      1 <0>        -0.1600
     15 C8         14.5706    4.8505   17.4891 C.ar      1 <0>        -0.0500
     16 C9         13.5649    5.6295   18.0112 C.ar      1 <0>        -0.1500
     17 C10        13.1375    6.7746   17.3361 C.ar      1 <0>         0.1700
     18 N7         12.1551    7.7041   17.6611 N.am      1 <0>        -0.6600
     19 C11        12.0456    8.6759   16.7402 C.2       1 <0>         0.5300
     20 O2         11.2742    9.6113   16.7685 O.2       1 <0>        -0.4900
     21 C12        13.0657    8.3842   15.6602 C.3       1 <0>        -0.1200
     22 C13        13.7451    7.1171   16.1273 C.ar      1 <0>        -0.1500
     23 C14        14.7456    6.3450   15.5993 C.ar      1 <0>        -0.0000
     24 C15        17.5564    1.3995   15.6678 C.3       1 <0>        -0.1300
     25 C16        18.6937    0.5195   15.1442 C.3       1 <0>         0.0500
     26 H1         20.1094   -3.6021   16.8390 H         1 <0>         0.0900
     27 H2         19.7140   -2.1629   17.8087 H         1 <0>         0.1100
     28 H3         18.8215   -2.4956   16.3049 H         1 <0>         0.1000
     29 H4         20.7211    2.1882   15.5151 H         1 <0>         0.0700
     30 H5         21.1300    1.6618   17.1654 H         1 <0>         0.1000
     31 H6         19.6572    3.6643   17.1922 H         1 <0>         0.0900
     32 H7         18.8509    2.2567   17.9270 H         1 <0>         0.0800
     33 H8         18.4778    3.2537   15.0647 H         1 <0>         0.0900
     34 H9         16.8788    3.6460   17.4939 H         1 <0>         0.4000
     35 H10        14.8959    3.9665   18.0173 H         1 <0>         0.1400
     36 H11        13.1036    5.3545   18.9481 H         1 <0>         0.1400
     37 H12        11.6107    7.6561   18.4625 H         1 <0>         0.4200
     38 H13        12.5721    8.2222   14.7019 H         1 <0>         0.1300
     39 H14        13.7861    9.1987   15.5850 H         1 <0>         0.1300
     40 H15        15.2043    6.6226   14.6617 H         1 <0>         0.1400
     41 H16        17.1436    0.9590   16.5754 H         1 <0>         0.0800
     42 H17        16.7755    1.4737   14.9109 H         1 <0>         0.0900
     43 H18        19.0968    0.9532   14.2291 H         1 <0>         0.0600
     44 H19        18.3127   -0.4800   14.9349 H         1 <0>         0.0900
@<TRIPOS>BOND
     1    1    2 1
     2    1   26 1
     3    1   27 1
     4    1   28 1
     5    2    6 1
     6    2    3 1
     7    3    4 2
     8    4    5 1
     9    5    6 2
    10    6    7 1
    11    7   25 1
    12    7    8 1
    13    8    9 1
    14    8   29 1
    15    8   30 1
    16    9   10 1
    17    9   31 1
    18    9   32 1
    19   10   11 1
    20   10   24 1
    21   10   33 1
    22   11   12 am
    23   11   34 1
    24   12   13 2
    25   12   14 1
    26   14   23 ar
    27   14   15 ar
    28   15   16 ar
    29   15   35 1
    30   16   17 ar
    31   16   36 1
    32   17   22 ar
    33   17   18 1
    34   18   19 am
    35   18   37 1
    36   19   20 2
    37   19   21 1
    38   21   22 1
    39   21   38 1
    40   21   39 1
    41   22   23 ar
    42   23   40 1
    43   24   25 1
    44   24   41 1
    45   24   42 1
    46   25   43 1
    47   25   44 1
##########                 Name:            smyd3_826
##########          Protonation:                 none
##########               SMILES:   NC1=NNC(N2CCC(NC(=O)C3=CC4=C(C=C3)NC(=O)C4)CC2)=N1
##########            Long Name:   NO_LONG_NAME
##########          FlexRecCode: 1
##########               Number:                 2197
##########   Ligand Source File: /proj/zinc22/users/x_andlu/OGG1/revisions/docking/targets/smyd3/db2gen/split_par
##########                 Rank:                    1
##########               Setnum:                   17
##########             Matchnum:                   14
##########                Cloud:                    1
##########        Electrostatic:           -20.269682
##########                 Gist:             0.000000
##########        Van der Waals:           -33.462978
##########  Ligand Polar Desolv:             6.757681
########## Ligand Apolar Desolv:            -1.827688
##########      Internal Energy:             0.000000
##########      Receptor Energy:             0.000000
########## Receptor Desolvation:             0.000000
########## Receptor Hydrophobic:             0.000000
##########         Total Energy:           -48.802662
##########        Ligand Charge:             0.000000
##########            Arbitrary:    +999.9990
##########        Ligand Energy:             0.000000

@<TRIPOS>MOLECULE
smyd3_826      none
   44    47     0     0     0
SMALL
USER_CHARGES

@<TRIPOS>ATOM
      1 N1         22.7414   -3.2462   16.2958 N.pl3     1 <0>        -0.8200
      2 C1         21.8538   -2.3005   15.7804 C.2       1 <0>         0.4900
      3 N2         21.6835   -2.0291   14.5091 N.2       1 <0>        -0.3700
      4 N3         20.7059   -1.0240   14.4324 N.pl3     1 <0>        -0.4900
      5 C2         20.3409   -0.7482   15.7017 C.2       1 <0>         0.4800
      6 N4         19.3983    0.1858   16.0918 N.pl3     1 <0>        -0.4600
      7 C3         20.0321    1.4717   16.4100 C.3       1 <0>         0.0800
      8 C4         18.9836    2.4327   16.9747 C.3       1 <0>        -0.1300
      9 C5         17.8720    2.6324   15.9408 C.3       1 <0>         0.1400
     10 N5         16.8361    3.5056   16.4981 N.am      1 <0>        -0.7200
     11 C6         16.1125    4.2983   15.6827 C.2       1 <0>         0.5700
     12 O1         16.3195    4.2886   14.4847 O.2       1 <0>        -0.5300
     13 C7         15.0689    5.1781   16.2443 C.ar      1 <0>        -0.1600
     14 C8         14.7131    6.3588   15.5844 C.ar      1 <0>        -0.0000
     15 C9         13.7450    7.1712   16.1132 C.ar      1 <0>        -0.1500
     16 C10        13.1008    6.8366   17.3046 C.ar      1 <0>         0.1700
     17 C11        13.4573    5.6571   17.9621 C.ar      1 <0>        -0.1500
     18 C12        14.4293    4.8374   17.4394 C.ar      1 <0>        -0.0500
     19 N6         12.1623    7.8091   17.6339 N.am      1 <0>        -0.6600
     20 C13        12.1185    8.8037   16.7320 C.2       1 <0>         0.5300
     21 O2         11.3958    9.7770   16.7677 O.2       1 <0>        -0.4900
     22 C14        13.1399    8.4811   15.6621 C.3       1 <0>        -0.1200
     23 C15        17.2611    1.2728   15.5907 C.3       1 <0>        -0.1300
     24 C16        18.3596    0.3452   15.0663 C.3       1 <0>         0.0600
     25 N7         21.0432   -1.5201   16.5035 N.2       1 <0>        -0.5900
     26 H1         22.8058   -3.3790   17.2545 H         1 <0>         0.4100
     27 H2         23.2938   -3.7707   15.6953 H         1 <0>         0.4100
     28 H3         20.3608   -0.6102   13.6259 H         1 <0>         0.4400
     29 H4         20.4647    1.8973   15.5046 H         1 <0>         0.0600
     30 H5         20.8177    1.3160   17.1495 H         1 <0>         0.1000
     31 H6         19.4512    3.3922   17.1962 H         1 <0>         0.0900
     32 H7         18.5603    2.0141   17.8878 H         1 <0>         0.0800
     33 H8         18.2878    3.0882   15.0422 H         1 <0>         0.0900
     34 H9         16.6709    3.5134   17.4539 H         1 <0>         0.4000
     35 H10        15.2014    6.6310   14.6603 H         1 <0>         0.1400
     36 H11        12.9666    5.3874   18.8857 H         1 <0>         0.1400
     37 H12        14.6993    3.9271   17.9539 H         1 <0>         0.1400
     38 H13        11.6031    7.7733   18.4256 H         1 <0>         0.4200
     39 H14        12.6546    8.3643   14.6931 H         1 <0>         0.1300
     40 H15        13.9027    9.2584   15.6151 H         1 <0>         0.1300
     41 H16        16.8107    0.8357   16.4822 H         1 <0>         0.0800
     42 H17        16.4979    1.4033   14.8236 H         1 <0>         0.0900
     43 H18        18.8000    0.7761   14.1670 H         1 <0>         0.0600
     44 H19        17.9304   -0.6283   14.8296 H         1 <0>         0.0800
@<TRIPOS>BOND
     1    1    2 1
     2    1   26 1
     3    1   27 1
     4    2   25 1
     5    2    3 2
     6    3    4 1
     7    4    5 1
     8    4   28 1
     9    5    6 1
    10    5   25 2
    11    6   24 1
    12    6    7 1
    13    7    8 1
    14    7   29 1
    15    7   30 1
    16    8    9 1
    17    8   31 1
    18    8   32 1
    19    9   10 1
    20    9   23 1
    21    9   33 1
    22   10   11 am
    23   10   34 1
    24   11   12 2
    25   11   13 1
    26   13   18 ar
    27   13   14 ar
    28   14   15 ar
    29   14   35 1
    30   15   22 1
    31   15   16 ar
    32   16   17 ar
    33   16   19 1
    34   17   18 ar
    35   17   36 1
    36   18   37 1
    37   19   20 am
    38   19   38 1
    39   20   21 2
    40   20   22 1
    41   22   39 1
    42   22   40 1
    43   23   24 1
    44   23   41 1
    45   23   42 1
    46   24   43 1
    47   24   44 1
##########                 Name:            smyd3_828
##########          Protonation:                 none
##########               SMILES:   CN1C=C(N2CCC(NC(=O)C3=CC=C4NC(=O)CC4=C3)CC2)C=N1
##########            Long Name:   NO_LONG_NAME
##########          FlexRecCode: 1
##########               Number:                 2206
##########   Ligand Source File: /proj/zinc22/users/x_andlu/OGG1/revisions/docking/targets/smyd3/db2gen/split_par
##########                 Rank:                    1
##########               Setnum:                   15
##########             Matchnum:                   14
##########                Cloud:                    1
##########        Electrostatic:           -18.663092
##########                 Gist:             0.000000
##########        Van der Waals:           -33.593773
##########  Ligand Polar Desolv:             7.015935
########## Ligand Apolar Desolv:            -1.363958
##########      Internal Energy:             0.000000
##########      Receptor Energy:             0.000000
########## Receptor Desolvation:             0.000000
########## Receptor Hydrophobic:             0.000000
##########         Total Energy:           -46.604893
##########        Ligand Charge:             0.000000
##########            Arbitrary:    +999.9990
##########        Ligand Energy:             0.000000

@<TRIPOS>MOLECULE
smyd3_828      none
   46    49     0     0     0
SMALL
USER_CHARGES

@<TRIPOS>ATOM
      1 C1         21.9923   -2.8823   13.8644 C.3       1 <0>         0.1000
      2 N1         21.0377   -2.4264   14.8779 N.pl3     1 <0>        -0.3700
      3 C2         20.3408   -1.2591   14.8537 C.2       1 <0>         0.0400
      4 C3         19.5707   -1.2190   15.9703 C.2       1 <0>        -0.0500
      5 N2         18.6932   -0.1801   16.3351 N.pl3     1 <0>        -0.4600
      6 C4         19.4289    1.0655   16.5883 C.3       1 <0>         0.0600
      7 C5         18.4660    2.1289   17.1212 C.3       1 <0>        -0.1200
      8 C6         17.3580    2.3688   16.0919 C.3       1 <0>         0.1400
      9 N3         16.4008    3.3436   16.6211 N.am      1 <0>        -0.7200
     10 C7         15.7288    4.1535   15.7793 C.2       1 <0>         0.5700
     11 O1         15.9168    4.0753   14.5806 O.2       1 <0>        -0.5300
     12 C8         14.7643    5.1354   16.3125 C.ar      1 <0>        -0.1600
     13 C9         14.1178    4.8979   17.5282 C.ar      1 <0>        -0.0500
     14 C10        13.2193    5.8129   18.0248 C.ar      1 <0>        -0.1500
     15 C11        12.9459    6.9867   17.3197 C.ar      1 <0>         0.1700
     16 N4         12.0907    8.0429   17.6158 N.am      1 <0>        -0.6600
     17 C12        12.1111    8.9979   16.6712 C.2       1 <0>         0.5300
     18 O2         11.4671   10.0255   16.6720 O.2       1 <0>        -0.4900
     19 C13        13.0889    8.5505   15.6054 C.3       1 <0>        -0.1200
     20 C14        13.5971    7.2181   16.1073 C.ar      1 <0>        -0.1500
     21 C15        14.4913    6.3106   15.6045 C.ar      1 <0>        -0.0000
     22 C16        16.6390    1.0467   15.8100 C.3       1 <0>        -0.1300
     23 C17        17.6549    0.0146   15.3152 C.3       1 <0>         0.0600
     24 C18        19.8084   -2.3930   16.6992 C.2       1 <0>         0.0200
     25 N5         20.6804   -3.1157   16.0437 N.2       1 <0>        -0.2800
     26 H1         22.0655   -2.1367   13.0728 H         1 <0>         0.0800
     27 H2         22.9709   -3.0220   14.3237 H         1 <0>         0.0900
     28 H3         21.6507   -3.8276   13.4428 H         1 <0>         0.0900
     29 H4         20.3907   -0.5018   14.0852 H         1 <0>         0.1800
     30 H5         19.8797    1.4161   15.6600 H         1 <0>         0.0500
     31 H6         20.2111    0.8820   17.3250 H         1 <0>         0.0900
     32 H7         19.0094    3.0579   17.2941 H         1 <0>         0.0800
     33 H8         18.0252    1.7855   18.0569 H         1 <0>         0.0800
     34 H9         17.7946    2.7511   15.1691 H         1 <0>         0.0900
     35 H10        16.2508    3.4060   17.5773 H         1 <0>         0.4000
     36 H11        14.3241    3.9926   18.0796 H         1 <0>         0.1400
     37 H12        12.7229    5.6228   18.9649 H         1 <0>         0.1400
     38 H13        11.5418    8.0853   18.4144 H         1 <0>         0.4200
     39 H14        12.5820    8.4302   14.6480 H         1 <0>         0.1300
     40 H15        13.9088    9.2631   15.5157 H         1 <0>         0.1300
     41 H16        14.9854    6.5035   14.6637 H         1 <0>         0.1400
     42 H17        16.1695    0.6855   16.7250 H         1 <0>         0.0800
     43 H18        15.8770    1.2025   15.0463 H         1 <0>         0.0800
     44 H19        18.1140    0.3701   14.3928 H         1 <0>         0.0400
     45 H20        17.1486   -0.9322   15.1273 H         1 <0>         0.0800
     46 H21        19.3483   -2.6569   17.6400 H         1 <0>         0.1800
@<TRIPOS>BOND
     1    1    2 1
     2    1   26 1
     3    1   27 1
     4    1   28 1
     5    2   25 1
     6    2    3 1
     7    3    4 2
     8    3   29 1
     9    4    5 1
    10    4   24 1
    11    5   23 1
    12    5    6 1
    13    6    7 1
    14    6   30 1
    15    6   31 1
    16    7    8 1
    17    7   32 1
    18    7   33 1
    19    8    9 1
    20    8   22 1
    21    8   34 1
    22    9   10 am
    23    9   35 1
    24   10   11 2
    25   10   12 1
    26   12   21 ar
    27   12   13 ar
    28   13   14 ar
    29   13   36 1
    30   14   15 ar
    31   14   37 1
    32   15   20 ar
    33   15   16 1
    34   16   17 am
    35   16   38 1
    36   17   18 2
    37   17   19 1
    38   19   20 1
    39   19   39 1
    40   19   40 1
    41   20   21 ar
    42   21   41 1
    43   22   23 1
    44   22   42 1
    45   22   43 1
    46   23   44 1
    47   23   45 1
    48   24   25 2
    49   24   46 1
##########                 Name:            smyd3_829
##########          Protonation:                 none
##########               SMILES:   CC1=CC(N2CCC(NC(=O)C3=CC=C4NC(=O)CC4=C3)CC2)=NN1
##########            Long Name:   NO_LONG_NAME
##########          FlexRecCode: 1
##########               Number:                 2209
##########   Ligand Source File: /proj/zinc22/users/x_andlu/OGG1/revisions/docking/targets/smyd3/db2gen/split_par
##########                 Rank:                    1
##########               Setnum:                   16
##########             Matchnum:                    4
##########                Cloud:                    1
##########        Electrostatic:           -18.383871
##########                 Gist:             0.000000
##########        Van der Waals:           -33.690971
##########  Ligand Polar Desolv:             6.713841
########## Ligand Apolar Desolv:            -1.670539
##########      Internal Energy:             0.000000
##########      Receptor Energy:             0.000000
########## Receptor Desolvation:             0.000000
########## Receptor Hydrophobic:             0.000000
##########         Total Energy:           -47.031544
##########        Ligand Charge:             0.000000
##########            Arbitrary:    +999.9990
##########        Ligand Energy:             0.000000

@<TRIPOS>MOLECULE
smyd3_829      none
   46    49     0     0     0
SMALL
USER_CHARGES

@<TRIPOS>ATOM
      1 C1         21.9710   -2.9233   13.2825 C.3       1 <0>        -0.1000
      2 C2         21.3139   -2.2691   14.4703 C.2       1 <0>         0.1000
      3 C3         20.3987   -1.2742   14.4263 C.2       1 <0>        -0.2700
      4 C4         20.0453   -0.9552   15.7475 C.2       1 <0>         0.2600
      5 N1         19.1252    0.0243   16.1388 N.pl3     1 <0>        -0.4500
      6 C5         19.8009    1.2958   16.4277 C.3       1 <0>         0.0600
      7 C6         18.7888    2.2967   16.9899 C.3       1 <0>        -0.1300
      8 C7         17.6701    2.5127   15.9670 C.3       1 <0>         0.1400
      9 N2         16.6679    3.4255   16.5229 N.am      1 <0>        -0.7200
     10 C8         15.9575    4.2260   15.7039 C.2       1 <0>         0.5700
     11 O1         16.1483    4.1909   14.5037 O.2       1 <0>        -0.5300
     12 C9         14.9479    5.1454   16.2641 C.ar      1 <0>        -0.1600
     13 C10        14.3141    4.8431   17.4722 C.ar      1 <0>        -0.0500
     14 C11        13.3735    5.6999   17.9939 C.ar      1 <0>        -0.1500
     15 C12        13.0441    6.8789   17.3222 C.ar      1 <0>         0.1700
     16 N3         12.1398    7.8844   17.6475 N.am      1 <0>        -0.6600
     17 C13        12.1142    8.8656   16.7304 C.2       1 <0>         0.5300
     18 O2         11.4220    9.8610   16.7598 O.2       1 <0>        -0.4900
     19 C14        13.1114    8.4956   15.6530 C.3       1 <0>        -0.1200
     20 C15        13.6828    7.1752   16.1172 C.ar      1 <0>        -0.1500
     21 C16        14.6188    6.3259   15.5896 C.ar      1 <0>        -0.0000
     22 C17        17.0145    1.1664   15.6473 C.3       1 <0>        -0.1300
     23 C18        18.0780    0.1983   15.1241 C.3       1 <0>         0.0700
     24 N4         20.7327   -1.7322   16.5510 N.2       1 <0>        -0.3300
     25 N5         21.5346   -2.5715   15.7670 N.pl3     1 <0>        -0.4700
     26 H1         21.5953   -2.4712   12.3647 H         1 <0>         0.0800
     27 H2         23.0504   -2.7829   13.3412 H         1 <0>         0.0700
     28 H3         21.7428   -3.9892   13.2823 H         1 <0>         0.0900
     29 H4         20.0087   -0.8082   13.5336 H         1 <0>         0.1500
     30 H5         20.2339    1.6936   15.5100 H         1 <0>         0.0500
     31 H6         20.5914    1.1289   17.1595 H         1 <0>         0.0900
     32 H7         19.2876    3.2452   17.1894 H         1 <0>         0.0800
     33 H8         18.3656    1.9056   17.9150 H         1 <0>         0.0800
     34 H9         18.0873    2.9413   15.0557 H         1 <0>         0.0900
     35 H10        16.5158    3.4535   17.4805 H         1 <0>         0.4000
     36 H11        14.5637    3.9334   17.9978 H         1 <0>         0.1400
     37 H12        12.8874    5.4598   18.9279 H         1 <0>         0.1400
     38 H13        11.5901    7.8780   18.4466 H         1 <0>         0.4200
     39 H14        12.6101    8.3785   14.6922 H         1 <0>         0.1300
     40 H15        13.8964    9.2487   15.5840 H         1 <0>         0.1300
     41 H16        15.1025    6.5687   14.6550 H         1 <0>         0.1400
     42 H17        16.5633    0.7575   16.5514 H         1 <0>         0.0800
     43 H18        16.2455    1.3074   14.8878 H         1 <0>         0.0800
     44 H19        18.5191    0.6012   14.2125 H         1 <0>         0.0500
     45 H20        17.6172   -0.7658   14.9091 H         1 <0>         0.0900
     46 H21        22.1448   -3.2488   16.0982 H         1 <0>         0.4400
@<TRIPOS>BOND
     1    1    2 1
     2    1   26 1
     3    1   27 1
     4    1   28 1
     5    2   25 1
     6    2    3 2
     7    3    4 1
     8    3   29 1
     9    4    5 1
    10    4   24 2
    11    5   23 1
    12    5    6 1
    13    6    7 1
    14    6   30 1
    15    6   31 1
    16    7    8 1
    17    7   32 1
    18    7   33 1
    19    8    9 1
    20    8   22 1
    21    8   34 1
    22    9   10 am
    23    9   35 1
    24   10   11 2
    25   10   12 1
    26   12   21 ar
    27   12   13 ar
    28   13   14 ar
    29   13   36 1
    30   14   15 ar
    31   14   37 1
    32   15   20 ar
    33   15   16 1
    34   16   17 am
    35   16   38 1
    36   17   18 2
    37   17   19 1
    38   19   20 1
    39   19   39 1
    40   19   40 1
    41   20   21 ar
    42   21   41 1
    43   22   23 1
    44   22   42 1
    45   22   43 1
    46   23   44 1
    47   23   45 1
    48   24   25 1
    49   25   46 1
##########                 Name:            smyd3_833
##########          Protonation:                 none
##########               SMILES:   O=C1CC2=CC(C(=O)NC3CCN(C4=CC=CC=C4)CC3)=CC=C2N1
##########            Long Name:   NO_LONG_NAME
##########          FlexRecCode: 1
##########               Number:                 2224
##########   Ligand Source File: /proj/zinc22/users/x_andlu/OGG1/revisions/docking/targets/smyd3/db2gen/split_par
##########                 Rank:                    1
##########               Setnum:                    4
##########             Matchnum:                   19
##########                Cloud:                    1
##########        Electrostatic:           -18.693111
##########                 Gist:             0.000000
##########        Van der Waals:           -32.863384
##########  Ligand Polar Desolv:             5.884870
########## Ligand Apolar Desolv:            -2.301254
##########      Internal Energy:             0.000000
##########      Receptor Energy:             0.000000
########## Receptor Desolvation:             0.000000
########## Receptor Hydrophobic:             0.000000
##########         Total Energy:           -47.972881
##########        Ligand Charge:             0.000000
##########            Arbitrary:    +999.9990
##########        Ligand Energy:             0.000000

@<TRIPOS>MOLECULE
smyd3_833      none
   46    49     0     0     0
SMALL
USER_CHARGES

@<TRIPOS>ATOM
      1 O1         11.5343   10.0802   16.7955 O.2       1 <0>        -0.4900
      2 C1         12.1554    9.0394   16.7541 C.2       1 <0>         0.5300
      3 C2         13.1164    8.6087   15.6664 C.3       1 <0>        -0.1200
      4 C3         13.5950    7.2480   16.1192 C.ar      1 <0>        -0.1500
      5 C4         14.4698    6.3406   15.5772 C.ar      1 <0>        -0.0000
      6 C5         14.7213    5.1354   16.2413 C.ar      1 <0>        -0.1600
      7 C6         15.6605    4.1522   15.6671 C.2       1 <0>         0.5700
      8 O2         15.8435    4.1161   14.4657 O.2       1 <0>        -0.5300
      9 N1         16.3154    3.2946   16.4747 N.am      1 <0>        -0.7200
     10 C7         17.2477    2.3188   15.9048 C.3       1 <0>         0.1400
     11 C8         16.4965    1.0264   15.5731 C.3       1 <0>        -0.1300
     12 C9         17.4864   -0.0101   15.0365 C.3       1 <0>         0.0600
     13 N2         18.5226   -0.2685   16.0445 N.pl3     1 <0>        -0.4900
     14 C10        19.3672   -1.3047   15.6398 C.ar      1 <0>         0.1100
     15 C11        20.0981   -1.1880   14.4642 C.ar      1 <0>        -0.1700
     16 C12        20.9359   -2.2124   14.0694 C.ar      1 <0>        -0.0900
     17 C13        21.0398   -3.3577   14.8375 C.ar      1 <0>        -0.1500
     18 C14        20.3096   -3.4793   16.0055 C.ar      1 <0>        -0.0900
     19 C15        19.4740   -2.4565   16.4089 C.ar      1 <0>        -0.1400
     20 C16        19.2882    0.9485   16.3431 C.3       1 <0>         0.0500
     21 C17        18.3523    2.0129   16.9200 C.3       1 <0>        -0.1300
     22 C18        14.0725    4.8665   17.4494 C.ar      1 <0>        -0.0500
     23 C19        13.2016    5.7851   17.9869 C.ar      1 <0>        -0.1500
     24 C20        12.9497    6.9887   17.3255 C.ar      1 <0>         0.1700
     25 N3         12.1198    8.0523   17.6646 N.am      1 <0>        -0.6600
     26 H1         13.9527    9.3045   15.5977 H         1 <0>         0.1300
     27 H2         12.6011    8.5333   14.7090 H         1 <0>         0.1300
     28 H3         14.9624    6.5561   14.6405 H         1 <0>         0.1400
     29 H4         16.1663    3.3206   17.4328 H         1 <0>         0.4000
     30 H5         17.6907    2.7260   14.9959 H         1 <0>         0.0900
     31 H6         16.0201    0.6408   16.4743 H         1 <0>         0.0800
     32 H7         15.7370    1.2305   14.8181 H         1 <0>         0.0800
     33 H8         17.9515    0.3700   14.1270 H         1 <0>         0.0500
     34 H9         16.9571   -0.9366   14.8141 H         1 <0>         0.0900
     35 H10        20.0141   -0.2957   13.8617 H         1 <0>         0.1300
     36 H11        21.5075   -2.1207   13.1577 H         1 <0>         0.1200
     37 H12        21.6924   -4.1592   14.5240 H         1 <0>         0.1200
     38 H13        20.3929   -4.3752   16.6028 H         1 <0>         0.1200
     39 H14        18.9038   -2.5523   17.3211 H         1 <0>         0.1200
     40 H15        19.7449    1.3241   15.4274 H         1 <0>         0.0500
     41 H16        20.0676    0.7179   17.0694 H         1 <0>         0.0900
     42 H17        18.9180    2.9213   17.1269 H         1 <0>         0.0800
     43 H18        17.9059    1.6433   17.8432 H         1 <0>         0.0800
     44 H19        14.2589    3.9360   17.9648 H         1 <0>         0.1300
     45 H20        12.7070    5.5727   18.9232 H         1 <0>         0.1400
     46 H21        11.5766    8.0782   18.4677 H         1 <0>         0.4200
@<TRIPOS>BOND
     1    1    2 2
     2    2   25 am
     3    2    3 1
     4    3    4 1
     5    3   26 1
     6    3   27 1
     7    4   24 ar
     8    4    5 ar
     9    5    6 ar
    10    5   28 1
    11    6    7 1
    12    6   22 ar
    13    7    8 2
    14    7    9 am
    15    9   10 1
    16    9   29 1
    17   10   21 1
    18   10   11 1
    19   10   30 1
    20   11   12 1
    21   11   31 1
    22   11   32 1
    23   12   13 1
    24   12   33 1
    25   12   34 1
    26   13   14 1
    27   13   20 1
    28   14   19 ar
    29   14   15 ar
    30   15   16 ar
    31   15   35 1
    32   16   17 ar
    33   16   36 1
    34   17   18 ar
    35   17   37 1
    36   18   19 ar
    37   18   38 1
    38   19   39 1
    39   20   21 1
    40   20   40 1
    41   20   41 1
    42   21   42 1
    43   21   43 1
    44   22   23 ar
    45   22   44 1
    46   23   24 ar
    47   23   45 1
    48   24   25 1
    49   25   46 1
##########                 Name:            smyd3_834
##########          Protonation:                 none
##########               SMILES:   O=C1CC2=C(C=CC(C(=O)NC3CCN(C4=CC=[NH+]C=C4)CC3)=C2)N1
##########            Long Name:   NO_LONG_NAME
##########          FlexRecCode: 1
##########               Number:                 2227
##########   Ligand Source File: /proj/zinc22/users/x_andlu/OGG1/revisions/docking/targets/smyd3/db2gen/split_par
##########                 Rank:                    1
##########               Setnum:                   19
##########             Matchnum:                    6
##########                Cloud:                    1
##########        Electrostatic:           -24.594551
##########                 Gist:             0.000000
##########        Van der Waals:           -31.294159
##########  Ligand Polar Desolv:             6.254665
########## Ligand Apolar Desolv:            -1.470066
##########      Internal Energy:             0.000000
##########      Receptor Energy:             0.000000
########## Receptor Desolvation:             0.000000
########## Receptor Hydrophobic:             0.000000
##########         Total Energy:           -51.104111
##########        Ligand Charge:             1.000000
##########            Arbitrary:    +999.9990
##########        Ligand Energy:             0.000000

@<TRIPOS>MOLECULE
smyd3_834      none
   46    49     0     0     0
SMALL
USER_CHARGES

@<TRIPOS>ATOM
      1 O1         11.2087    9.7300   16.8131 O.2       1 <0>        -0.4900
      2 C1         11.9786    8.7939   16.7693 C.2       1 <0>         0.5300
      3 C2         13.0114    8.5289   15.6947 C.3       1 <0>        -0.1200
      4 C3         13.6795    7.2473   16.1380 C.ar      1 <0>        -0.1500
      5 C4         13.0597    6.8751   17.3275 C.ar      1 <0>         0.1800
      6 C5         13.4772    5.7114   17.9773 C.ar      1 <0>        -0.1500
      7 C6         14.4841    4.9419   17.4443 C.ar      1 <0>        -0.0500
      8 C7         15.1059    5.3240   16.2523 C.ar      1 <0>        -0.1700
      9 C8         16.1904    4.5007   15.6826 C.2       1 <0>         0.5700
     10 O2         16.3934    4.5079   14.4838 O.2       1 <0>        -0.5300
     11 N1         16.9556    3.7410   16.4911 N.am      1 <0>        -0.7300
     12 C9         18.0319    2.9237   15.9256 C.3       1 <0>         0.1400
     13 C10        18.7439    2.1661   17.0497 C.3       1 <0>        -0.1300
     14 C11        19.9041    1.3609   16.4603 C.3       1 <0>         0.0400
     15 N2         20.8414    2.2702   15.7887 N.pl3     1 <0>        -0.4700
     16 C12        21.9741    1.5878   15.3551 C.ar      1 <0>         0.2400
     17 C13        22.1120    0.2176   15.5756 C.ar      1 <0>        -0.1600
     18 C14        23.2497   -0.4216   15.1297 C.ar      1 <0>         0.1500
     19 N3         24.1994    0.2466   14.5021 N.ar      1 <0>        -0.4700
     20 H1         24.9889   -0.2291   14.1999 H         1 <0>         0.4500
     21 C15        24.1061    1.5434   14.2745 C.ar      1 <0>         0.1600
     22 C16        23.0006    2.2562   14.6883 C.ar      1 <0>        -0.2000
     23 C17        20.1924    2.9739   14.6751 C.3       1 <0>         0.0600
     24 C18        19.0407    3.8273   15.2111 C.3       1 <0>        -0.1400
     25 C19        14.6890    6.4889   15.6003 C.ar      1 <0>         0.0000
     26 N4         12.0750    7.7977   17.6653 N.am      1 <0>        -0.6600
     27 H2         13.7356    9.3424   15.6517 H         1 <0>         0.1300
     28 H3         12.5295    8.3935   14.7264 H         1 <0>         0.1300
     29 H4         13.0040    5.4125   18.9009 H         1 <0>         0.1400
     30 H5         14.7985    4.0412   17.9506 H         1 <0>         0.1300
     31 H6         16.7936    3.7353   17.4475 H         1 <0>         0.4000
     32 H7         17.6133    2.2115   15.2146 H         1 <0>         0.0900
     33 H8         18.0404    1.4894   17.5347 H         1 <0>         0.0900
     34 H9         19.1287    2.8772   17.7808 H         1 <0>         0.0900
     35 H10        19.5173    0.6407   15.7396 H         1 <0>         0.0700
     36 H11        20.4220    0.8317   17.2603 H         1 <0>         0.1000
     37 H12        21.3388   -0.3352   16.0885 H         1 <0>         0.1800
     38 H13        23.3671   -1.4816   15.2999 H         1 <0>         0.2100
     39 H14        24.9060    2.0528   13.7575 H         1 <0>         0.2100
     40 H15        22.9306    3.3171   14.4984 H         1 <0>         0.1800
     41 H16        20.9196    3.6160   14.1781 H         1 <0>         0.1000
     42 H17        19.8040    2.2461   13.9625 H         1 <0>         0.0700
     43 H18        18.5494    4.3374   14.3824 H         1 <0>         0.0900
     44 H19        19.4297    4.5649   15.9131 H         1 <0>         0.0800
     45 H20        15.1599    6.7906   14.6764 H         1 <0>         0.1400
     46 H21        11.5205    7.7292   18.4582 H         1 <0>         0.4200
@<TRIPOS>BOND
     1    1    2 2
     2    2   26 am
     3    2    3 1
     4    3    4 1
     5    3   27 1
     6    3   28 1
     7    4   25 ar
     8    4    5 ar
     9    5    6 ar
    10    5   26 1
    11    6    7 ar
    12    6   29 1
    13    7    8 ar
    14    7   30 1
    15    8    9 1
    16    8   25 ar
    17    9   10 2
    18    9   11 am
    19   11   12 1
    20   11   31 1
    21   12   24 1
    22   12   13 1
    23   12   32 1
    24   13   14 1
    25   13   33 1
    26   13   34 1
    27   14   15 1
    28   14   35 1
    29   14   36 1
    30   15   16 1
    31   15   23 1
    32   16   22 ar
    33   16   17 ar
    34   17   18 ar
    35   17   37 1
    36   18   19 ar
    37   18   38 1
    38   19   20 1
    39   19   21 ar
    40   21   22 ar
    41   21   39 1
    42   22   40 1
    43   23   24 1
    44   23   41 1
    45   23   42 1
    46   24   43 1
    47   24   44 1
    48   25   45 1
    49   26   46 1
##########                 Name:            smyd3_835
##########          Protonation:                 none
##########               SMILES:   O=C1CC2=CC(C(=O)NC3CCN(C4=CN=CC=C4)CC3)=CC=C2N1
##########            Long Name:   NO_LONG_NAME
##########          FlexRecCode: 1
##########               Number:                 2230
##########   Ligand Source File: /proj/zinc22/users/x_andlu/OGG1/revisions/docking/targets/smyd3/db2gen/split_par
##########                 Rank:                    1
##########               Setnum:                   30
##########             Matchnum:                   12
##########                Cloud:                    1
##########        Electrostatic:           -13.473438
##########                 Gist:             0.000000
##########        Van der Waals:           -36.700592
##########  Ligand Polar Desolv:             6.752418
########## Ligand Apolar Desolv:            -1.484705
##########      Internal Energy:             0.000000
##########      Receptor Energy:             0.000000
########## Receptor Desolvation:             0.000000
########## Receptor Hydrophobic:             0.000000
##########         Total Energy:           -44.906319
##########        Ligand Charge:             0.000000
##########            Arbitrary:    +999.9990
##########        Ligand Energy:             0.000000

@<TRIPOS>MOLECULE
smyd3_835      none
   45    48     0     0     0
SMALL
USER_CHARGES

@<TRIPOS>ATOM
      1 O1         11.3841   10.0933   16.5353 O.2       1 <0>        -0.4900
      2 C1         12.0331    9.0711   16.6062 C.2       1 <0>         0.5300
      3 C2         12.9256    8.4963   15.5270 C.3       1 <0>        -0.1200
      4 C3         13.4783    7.2321   16.1448 C.ar      1 <0>        -0.1500
      5 C4         14.3395    6.2692   15.6827 C.ar      1 <0>        -0.0000
      6 C5         14.6764    5.1867   16.5022 C.ar      1 <0>        -0.1600
      7 C6         15.6019    4.1452   16.0151 C.2       1 <0>         0.5700
      8 O2         15.6982    3.9269   14.8229 O.2       1 <0>        -0.5300
      9 N1         16.3402    3.4363   16.8918 N.am      1 <0>        -0.7200
     10 C7         17.2589    2.4025   16.4083 C.3       1 <0>         0.1400
     11 C8         17.9674    1.7501   17.5987 C.3       1 <0>        -0.1300
     12 C9         18.8796    0.6307   17.0920 C.3       1 <0>         0.0500
     13 N2         18.0787   -0.3661   16.3699 N.pl3     1 <0>        -0.4800
     14 C10        18.8582   -1.4673   16.0073 C.ar      1 <0>         0.0600
     15 C11        18.2957   -2.5308   15.3132 C.ar      1 <0>         0.0500
     16 N3         19.0293   -3.5693   14.9649 N.ar      1 <0>        -0.4600
     17 C12        20.3118   -3.6447   15.2614 C.ar      1 <0>         0.0700
     18 C13        20.9418   -2.6282   15.9556 C.ar      1 <0>        -0.1400
     19 C14        20.2097   -1.5177   16.3415 C.ar      1 <0>        -0.1000
     20 C15        17.4267    0.2267   15.1952 C.3       1 <0>         0.0600
     21 C16        16.4711    1.3341   15.6451 C.3       1 <0>        -0.1300
     22 C17        14.1258    5.0955   17.7832 C.ar      1 <0>        -0.0500
     23 C18        13.2678    6.0688   18.2389 C.ar      1 <0>        -0.1500
     24 C19        12.9308    7.1502   17.4224 C.ar      1 <0>         0.1700
     25 N4         12.0948    8.2367   17.6571 N.am      1 <0>        -0.6600
     26 H1         13.7323    9.1895   15.2887 H         1 <0>         0.1300
     27 H2         12.3446    8.2631   14.6346 H         1 <0>         0.1300
     28 H3         14.7558    6.3465   14.6891 H         1 <0>         0.1400
     29 H4         16.2633    3.6104   17.8430 H         1 <0>         0.4000
     30 H5         17.9987    2.8523   15.7459 H         1 <0>         0.0900
     31 H6         17.2254    1.3345   18.2805 H         1 <0>         0.0800
     32 H7         18.5643    2.4976   18.1212 H         1 <0>         0.0800
     33 H8         19.3747    0.1546   17.9385 H         1 <0>         0.0900
     34 H9         19.6298    1.0490   16.4211 H         1 <0>         0.0500
     35 H10        17.2481   -2.5048   15.0520 H         1 <0>         0.1600
     36 H11        20.8783   -4.5127   14.9582 H         1 <0>         0.1600
     37 H12        21.9926   -2.6995   16.1943 H         1 <0>         0.1400
     38 H13        20.6759   -0.7088   16.8846 H         1 <0>         0.1400
     39 H14        18.1837    0.6471   14.5331 H         1 <0>         0.0500
     40 H15        16.8665   -0.5426   14.6638 H         1 <0>         0.0900
     41 H16        15.7056    0.9120   16.2961 H         1 <0>         0.0800
     42 H17        15.9985    1.7846   14.7722 H         1 <0>         0.0800
     43 H18        14.3784    4.2600   18.4193 H         1 <0>         0.1300
     44 H19        12.8495    5.9943   19.2318 H         1 <0>         0.1400
     45 H20        11.6106    8.3760   18.4861 H         1 <0>         0.4200
@<TRIPOS>BOND
     1    1    2 2
     2    2   25 am
     3    2    3 1
     4    3    4 1
     5    3   26 1
     6    3   27 1
     7    4   24 ar
     8    4    5 ar
     9    5    6 ar
    10    5   28 1
    11    6    7 1
    12    6   22 ar
    13    7    8 2
    14    7    9 am
    15    9   10 1
    16    9   29 1
    17   10   21 1
    18   10   11 1
    19   10   30 1
    20   11   12 1
    21   11   31 1
    22   11   32 1
    23   12   13 1
    24   12   33 1
    25   12   34 1
    26   13   14 1
    27   13   20 1
    28   14   19 ar
    29   14   15 ar
    30   15   16 ar
    31   15   35 1
    32   16   17 ar
    33   17   18 ar
    34   17   36 1
    35   18   19 ar
    36   18   37 1
    37   19   38 1
    38   20   21 1
    39   20   39 1
    40   20   40 1
    41   21   41 1
    42   21   42 1
    43   22   23 ar
    44   22   43 1
    45   23   24 ar
    46   23   44 1
    47   24   25 1
    48   25   45 1
##########                 Name:            smyd3_836
##########          Protonation:                 none
##########               SMILES:   O=C1CC2=CC(C(=O)NC3CCN(C4=CC=CC=[NH+]4)CC3)=CC=C2N1
##########            Long Name:   NO_LONG_NAME
##########          FlexRecCode: 1
##########               Number:                 2234
##########   Ligand Source File: /proj/zinc22/users/x_andlu/OGG1/revisions/docking/targets/smyd3/db2gen/split_par
##########                 Rank:                    1
##########               Setnum:                   18
##########             Matchnum:                   13
##########                Cloud:                    1
##########        Electrostatic:           -26.345963
##########                 Gist:             0.000000
##########        Van der Waals:           -32.494968
##########  Ligand Polar Desolv:             7.686268
########## Ligand Apolar Desolv:            -1.806955
##########      Internal Energy:             0.000000
##########      Receptor Energy:             0.000000
########## Receptor Desolvation:             0.000000
########## Receptor Hydrophobic:             0.000000
##########         Total Energy:           -52.961617
##########        Ligand Charge:             1.000000
##########            Arbitrary:    +999.9990
##########        Ligand Energy:             0.000000

@<TRIPOS>MOLECULE
smyd3_836      none
   46    49     0     0     0
SMALL
USER_CHARGES

@<TRIPOS>ATOM
      1 O1         11.1551    9.5723   16.9802 O.2       1 <0>        -0.4900
      2 C1         11.9508    8.6596   16.9127 C.2       1 <0>         0.5300
      3 C2         12.9139    8.3888   15.7765 C.3       1 <0>        -0.1200
      4 C3         13.6570    7.1462   16.2113 C.ar      1 <0>        -0.1500
      5 C4         14.6472    6.3992   15.6304 C.ar      1 <0>         0.0000
      6 C5         15.1475    5.2715   16.2898 C.ar      1 <0>        -0.1700
      7 C6         16.2165    4.4627   15.6721 C.2       1 <0>         0.5700
      8 O2         16.3348    4.4334   14.4623 O.2       1 <0>        -0.5300
      9 N1         17.0617    3.7566   16.4491 N.am      1 <0>        -0.7300
     10 C7         18.1227    2.9538   15.8360 C.3       1 <0>         0.1400
     11 C8         17.6030    1.5389   15.5666 C.3       1 <0>        -0.1300
     12 C9         18.7332    0.6881   14.9827 C.3       1 <0>         0.0500
     13 N2         19.8544    0.6448   15.9300 N.pl3     1 <0>        -0.4900
     14 C10        20.8450   -0.2254   15.4899 C.ar      1 <0>         0.3600
     15 C11        22.1267    0.2564   15.2449 C.ar      1 <0>        -0.1800
     16 C12        23.1040   -0.6215   14.8114 C.ar      1 <0>         0.0300
     17 C13        22.7628   -1.9548   14.6279 C.ar      1 <0>        -0.1500
     18 C14        21.4696   -2.3636   14.8858 C.ar      1 <0>         0.1500
     19 N3         20.5588   -1.5046   15.3025 N.ar      1 <0>        -0.4700
     20 H1         19.6574   -1.8181   15.4762 H         1 <0>         0.4500
     21 C15        20.4007    1.9871   16.1678 C.3       1 <0>         0.0500
     22 C16        19.3203    2.8766   16.7871 C.3       1 <0>        -0.1300
     23 C17        14.6282    4.9164   17.5373 C.ar      1 <0>        -0.0500
     24 C18        13.6321    5.6701   18.1125 C.ar      1 <0>        -0.1500
     25 C19        13.1318    6.7963   17.4561 C.ar      1 <0>         0.1800
     26 N4         12.1431    7.6993   17.8322 N.am      1 <0>        -0.6600
     27 H2         12.3699    8.2044   14.8501 H         1 <0>         0.1300
     28 H3         13.6041    9.2235   15.6534 H         1 <0>         0.1300
     29 H4         15.0416    6.6821   14.6656 H         1 <0>         0.1400
     30 H5         16.9673    3.7801   17.4142 H         1 <0>         0.4000
     31 H6         18.4319    3.4141   14.8976 H         1 <0>         0.1000
     32 H7         17.2575    1.0942   16.4999 H         1 <0>         0.0900
     33 H8         16.7772    1.5838   14.8565 H         1 <0>         0.1000
     34 H9         19.0687    1.1257   14.0426 H         1 <0>         0.0800
     35 H10        18.3704   -0.3239   14.8031 H         1 <0>         0.0900
     36 H11        22.3566    1.3011   15.3943 H         1 <0>         0.1900
     37 H12        24.1087   -0.2767   14.6162 H         1 <0>         0.1800
     38 H13        23.5017   -2.6649   14.2871 H         1 <0>         0.1900
     39 H14        21.1998   -3.3998   14.7444 H         1 <0>         0.2100
     40 H15        20.7285    2.4186   15.2221 H         1 <0>         0.0800
     41 H16        21.2489    1.9183   16.8491 H         1 <0>         0.1100
     42 H17        19.7215    3.8771   16.9490 H         1 <0>         0.1000
     43 H18        19.0017    2.4536   17.7398 H         1 <0>         0.0900
     44 H19        15.0099    4.0468   18.0515 H         1 <0>         0.1300
     45 H20        13.2350    5.3896   19.0769 H         1 <0>         0.1400
     46 H21        11.6484    7.6423   18.6646 H         1 <0>         0.4200
@<TRIPOS>BOND
     1    1    2 2
     2    2   26 am
     3    2    3 1
     4    3    4 1
     5    3   27 1
     6    3   28 1
     7    4   25 ar
     8    4    5 ar
     9    5    6 ar
    10    5   29 1
    11    6    7 1
    12    6   23 ar
    13    7    8 2
    14    7    9 am
    15    9   10 1
    16    9   30 1
    17   10   22 1
    18   10   11 1
    19   10   31 1
    20   11   12 1
    21   11   32 1
    22   11   33 1
    23   12   13 1
    24   12   34 1
    25   12   35 1
    26   13   14 1
    27   13   21 1
    28   14   19 ar
    29   14   15 ar
    30   15   16 ar
    31   15   36 1
    32   16   17 ar
    33   16   37 1
    34   17   18 ar
    35   17   38 1
    36   18   19 ar
    37   18   39 1
    38   19   20 1
    39   21   22 1
    40   21   40 1
    41   21   41 1
    42   22   42 1
    43   22   43 1
    44   23   24 ar
    45   23   44 1
    46   24   25 ar
    47   24   45 1
    48   25   26 1
    49   26   46 1
##########                 Name:            smyd3_837
##########          Protonation:                 none
##########               SMILES:   O=C1CC2=CC(C(=O)NC3CCN(C4=NC=CC=N4)CC3)=CC=C2N1
##########            Long Name:   NO_LONG_NAME
##########          FlexRecCode: 1
##########               Number:                 2239
##########   Ligand Source File: /proj/zinc22/users/x_andlu/OGG1/revisions/docking/targets/smyd3/db2gen/split_par
##########                 Rank:                    1
##########               Setnum:                    4
##########             Matchnum:                   10
##########                Cloud:                    1
##########        Electrostatic:           -16.991251
##########                 Gist:             0.000000
##########        Van der Waals:           -34.718140
##########  Ligand Polar Desolv:             7.038353
########## Ligand Apolar Desolv:            -2.084848
##########      Internal Energy:             0.000000
##########      Receptor Energy:             0.000000
########## Receptor Desolvation:             0.000000
########## Receptor Hydrophobic:             0.000000
##########         Total Energy:           -46.755882
##########        Ligand Charge:             0.000000
##########            Arbitrary:    +999.9990
##########        Ligand Energy:             0.000000

@<TRIPOS>MOLECULE
smyd3_837      none
   44    47     0     0     0
SMALL
USER_CHARGES

@<TRIPOS>ATOM
      1 O1         11.4938   10.0606   16.7264 O.2       1 <0>        -0.4900
      2 C1         12.1300    9.0281   16.7163 C.2       1 <0>         0.5300
      3 C2         13.0937    8.5765   15.6397 C.3       1 <0>        -0.1200
      4 C3         13.5937    7.2384   16.1345 C.ar      1 <0>        -0.1500
      5 C4         14.4799    6.3268   15.6189 C.ar      1 <0>        -0.0000
      6 C5         14.7513    5.1474   16.3207 C.ar      1 <0>        -0.1600
      7 C6         15.7029    4.1600   15.7751 C.2       1 <0>         0.5700
      8 O2         15.8826    4.0877   14.5747 O.2       1 <0>        -0.5300
      9 N1         16.3729    3.3384   16.6075 N.am      1 <0>        -0.7200
     10 C7         17.3175    2.3584   16.0659 C.3       1 <0>         0.1400
     11 C8         18.4292    2.1008   17.0869 C.3       1 <0>        -0.1300
     12 C9         19.3786    1.0319   16.5412 C.3       1 <0>         0.0700
     13 N2         18.6297   -0.2047   16.2840 N.pl3     1 <0>        -0.4600
     14 C10        19.4802   -1.2318   15.9132 C.ar      1 <0>         0.4900
     15 N3         20.7203   -1.2448   16.3797 N.ar      1 <0>        -0.5500
     16 C11        21.5602   -2.2089   16.0406 C.ar      1 <0>         0.1700
     17 C12        21.1287   -3.2122   15.1871 C.ar      1 <0>        -0.2600
     18 C13        19.8253   -3.1677   14.7177 C.ar      1 <0>         0.1800
     19 N4         19.0366   -2.1756   15.0959 N.ar      1 <0>        -0.5300
     20 C14        17.5872    0.0067   15.2716 C.3       1 <0>         0.0700
     21 C15        16.5842    1.0450   15.7795 C.3       1 <0>        -0.1300
     22 C16        14.1103    4.9084   17.5391 C.ar      1 <0>        -0.0500
     23 C17        13.2278    5.8310   18.0499 C.ar      1 <0>        -0.1500
     24 C18        12.9561    7.0089   17.3509 C.ar      1 <0>         0.1700
     25 N5         12.1118    8.0707   17.6585 N.am      1 <0>        -0.6600
     26 H1         13.9194    9.2819   15.5455 H         1 <0>         0.1300
     27 H2         12.5765    8.4627   14.6870 H         1 <0>         0.1300
     28 H3         14.9663    6.5189   14.6739 H         1 <0>         0.1400
     29 H4         16.2294    3.3961   17.5651 H         1 <0>         0.4000
     30 H5         17.7523    2.7415   15.1428 H         1 <0>         0.0900
     31 H6         17.9908    1.7545   18.0228 H         1 <0>         0.0800
     32 H7         18.9824    3.0231   17.2636 H         1 <0>         0.0800
     33 H8         20.1634    0.8359   17.2719 H         1 <0>         0.1000
     34 H9         19.8272    1.3845   15.6124 H         1 <0>         0.0600
     35 H10        22.5696   -2.2142   16.4243 H         1 <0>         0.1700
     36 H11        21.7938   -4.0110   14.8939 H         1 <0>         0.1500
     37 H12        19.4582   -3.9341   14.0510 H         1 <0>         0.1700
     38 H13        18.0442    0.3641   14.3489 H         1 <0>         0.0500
     39 H14        17.0707   -0.9339   15.0803 H         1 <0>         0.1000
     40 H15        16.1168    0.6821   16.6948 H         1 <0>         0.0800
     41 H16        15.8192    1.2132   15.0214 H         1 <0>         0.0800
     42 H17        14.3121    3.9978   18.0837 H         1 <0>         0.1400
     43 H18        12.7394    5.6419   18.9944 H         1 <0>         0.1400
     44 H19        11.5707    8.1146   18.4623 H         1 <0>         0.4200
@<TRIPOS>BOND
     1    1    2 2
     2    2   25 am
     3    2    3 1
     4    3    4 1
     5    3   26 1
     6    3   27 1
     7    4   24 ar
     8    4    5 ar
     9    5    6 ar
    10    5   28 1
    11    6    7 1
    12    6   22 ar
    13    7    8 2
    14    7    9 am
    15    9   10 1
    16    9   29 1
    17   10   21 1
    18   10   11 1
    19   10   30 1
    20   11   12 1
    21   11   31 1
    22   11   32 1
    23   12   13 1
    24   12   33 1
    25   12   34 1
    26   13   14 1
    27   13   20 1
    28   14   19 ar
    29   14   15 ar
    30   15   16 ar
    31   16   17 ar
    32   16   35 1
    33   17   18 ar
    34   17   36 1
    35   18   19 ar
    36   18   37 1
    37   20   21 1
    38   20   38 1
    39   20   39 1
    40   21   40 1
    41   21   41 1
    42   22   23 ar
    43   22   42 1
    44   23   24 ar
    45   23   43 1
    46   24   25 1
    47   25   44 1
##########                 Name:            smyd3_838
##########          Protonation:                 none
##########               SMILES:   O=C1CC2=C(C=CC(C(=O)NC3CCN(C4=CN=CC=N4)CC3)=C2)N1
##########            Long Name:   NO_LONG_NAME
##########          FlexRecCode: 1
##########               Number:                 2242
##########   Ligand Source File: /proj/zinc22/users/x_andlu/OGG1/revisions/docking/targets/smyd3/db2gen/split_par
##########                 Rank:                    1
##########               Setnum:                   15
##########             Matchnum:                   10
##########                Cloud:                    1
##########        Electrostatic:           -17.171940
##########                 Gist:             0.000000
##########        Van der Waals:           -34.718754
##########  Ligand Polar Desolv:             6.546023
########## Ligand Apolar Desolv:            -1.376192
##########      Internal Energy:             0.000000
##########      Receptor Energy:             0.000000
########## Receptor Desolvation:             0.000000
########## Receptor Hydrophobic:             0.000000
##########         Total Energy:           -46.720860
##########        Ligand Charge:             0.000000
##########            Arbitrary:    +999.9990
##########        Ligand Energy:             0.000000

@<TRIPOS>MOLECULE
smyd3_838      none
   44    47     0     0     0
SMALL
USER_CHARGES

@<TRIPOS>ATOM
      1 O1         11.6075   10.0570   16.8615 O.2       1 <0>        -0.4900
      2 C1         12.2328    9.0188   16.8186 C.2       1 <0>         0.5300
      3 C2         13.1262    8.5532   15.6885 C.3       1 <0>        -0.1200
      4 C3         13.6455    7.2130   16.1572 C.ar      1 <0>        -0.1500
      5 C4         13.0767    6.9945   17.4122 C.ar      1 <0>         0.1700
      6 C5         13.3787    5.8167   18.0997 C.ar      1 <0>        -0.1500
      7 C6         14.2241    4.8859   17.5440 C.ar      1 <0>        -0.0500
      8 C7         14.7885    5.1108   16.2853 C.ar      1 <0>        -0.1600
      9 C8         15.6962    4.1116   15.6884 C.2       1 <0>         0.5700
     10 O2         15.7992    4.0291   14.4798 O.2       1 <0>        -0.5300
     11 N1         16.4110    3.2907   16.4833 N.am      1 <0>        -0.7200
     12 C9         17.3121    2.2990   15.8909 C.3       1 <0>         0.1400
     13 C10        16.5522    0.9895   15.6623 C.3       1 <0>        -0.1300
     14 C11        17.5132   -0.0608   15.1004 C.3       1 <0>         0.0600
     15 N2         18.6163   -0.2726   16.0462 N.pl3     1 <0>        -0.4700
     16 C12        19.4374   -1.3137   15.6288 C.ar      1 <0>         0.2600
     17 C13        20.0894   -1.2393   14.4001 C.ar      1 <0>         0.0400
     18 N3         20.8683   -2.2295   14.0081 N.ar      1 <0>        -0.4200
     19 C14        21.0302   -3.2912   14.7798 C.ar      1 <0>         0.0100
     20 C15        20.3854   -3.3684   15.9997 C.ar      1 <0>         0.0800
     21 N4         19.6067   -2.3784   16.4020 N.ar      1 <0>        -0.4800
     22 C16        19.3893    0.9600   16.2451 C.3       1 <0>         0.0700
     23 C17        18.4845    2.0406   16.8412 C.3       1 <0>        -0.1300
     24 C18        14.4872    6.2895   15.5955 C.ar      1 <0>        -0.0000
     25 N5         12.2622    8.0655   17.7647 N.am      1 <0>        -0.6600
     26 H1         12.5519    8.4403   14.7690 H         1 <0>         0.1300
     27 H2         13.9499    9.2516   15.5400 H         1 <0>         0.1300
     28 H3         12.9456    5.6363   19.0724 H         1 <0>         0.1400
     29 H4         14.4527    3.9777   18.0819 H         1 <0>         0.1400
     30 H5         16.3289    3.3566   17.4475 H         1 <0>         0.4000
     31 H6         17.6900    2.6728   14.9393 H         1 <0>         0.0900
     32 H7         16.1411    0.6373   16.6086 H         1 <0>         0.0800
     33 H8         15.7418    1.1579   14.9531 H         1 <0>         0.0800
     34 H9         17.9132    0.2859   14.1475 H         1 <0>         0.0500
     35 H10        16.9786   -0.9986   14.9500 H         1 <0>         0.0900
     36 H11        19.9573   -0.3728   13.7692 H         1 <0>         0.1700
     37 H12        21.6685   -4.0999   14.4559 H         1 <0>         0.1700
     38 H13        20.5204   -4.2373   16.6268 H         1 <0>         0.1700
     39 H14        19.7806    1.3019   15.2870 H         1 <0>         0.0600
     40 H15        20.2175    0.7634   16.9260 H         1 <0>         0.0900
     41 H16        19.0546    2.9600   16.9742 H         1 <0>         0.0800
     42 H17        18.1037    1.7051   17.8060 H         1 <0>         0.0800
     43 H18        14.9181    6.4728   14.6223 H         1 <0>         0.1400
     44 H19        11.7711    8.1182   18.5995 H         1 <0>         0.4200
@<TRIPOS>BOND
     1    1    2 2
     2    2   25 am
     3    2    3 1
     4    3    4 1
     5    3   26 1
     6    3   27 1
     7    4   24 ar
     8    4    5 ar
     9    5    6 ar
    10    5   25 1
    11    6    7 ar
    12    6   28 1
    13    7    8 ar
    14    7   29 1
    15    8    9 1
    16    8   24 ar
    17    9   10 2
    18    9   11 am
    19   11   12 1
    20   11   30 1
    21   12   23 1
    22   12   13 1
    23   12   31 1
    24   13   14 1
    25   13   32 1
    26   13   33 1
    27   14   15 1
    28   14   34 1
    29   14   35 1
    30   15   16 1
    31   15   22 1
    32   16   21 ar
    33   16   17 ar
    34   17   18 ar
    35   17   36 1
    36   18   19 ar
    37   19   20 ar
    38   19   37 1
    39   20   21 ar
    40   20   38 1
    41   22   23 1
    42   22   39 1
    43   22   40 1
    44   23   41 1
    45   23   42 1
    46   24   43 1
    47   25   44 1
##########                 Name:            smyd3_839
##########          Protonation:                 none
##########               SMILES:   O=C1CC2=C(C=CC(C(=O)NC3CCN(C4=CC=NC=N4)CC3)=C2)N1
##########            Long Name:   NO_LONG_NAME
##########          FlexRecCode: 1
##########               Number:                 2245
##########   Ligand Source File: /proj/zinc22/users/x_andlu/OGG1/revisions/docking/targets/smyd3/db2gen/split_par
##########                 Rank:                    1
##########               Setnum:                   15
##########             Matchnum:                   17
##########                Cloud:                    1
##########        Electrostatic:           -20.616516
##########                 Gist:             0.000000
##########        Van der Waals:           -33.084152
##########  Ligand Polar Desolv:             6.572536
########## Ligand Apolar Desolv:            -2.063901
##########      Internal Energy:             0.000000
##########      Receptor Energy:             0.000000
########## Receptor Desolvation:             0.000000
########## Receptor Hydrophobic:             0.000000
##########         Total Energy:           -49.192032
##########        Ligand Charge:             0.000000
##########            Arbitrary:    +999.9990
##########        Ligand Energy:             0.000000

@<TRIPOS>MOLECULE
smyd3_839      none
   44    47     0     0     0
SMALL
USER_CHARGES

@<TRIPOS>ATOM
      1 O1         11.5212   10.0470   16.8211 O.2       1 <0>        -0.4900
      2 C1         12.1497    9.0105   16.7851 C.2       1 <0>         0.5300
      3 C2         13.0930    8.5684   15.6864 C.3       1 <0>        -0.1200
      4 C3         13.5908    7.2194   16.1530 C.ar      1 <0>        -0.1500
      5 C4         12.9710    6.9759   17.3753 C.ar      1 <0>         0.1700
      6 C5         13.2455    5.7854   18.0523 C.ar      1 <0>        -0.1500
      7 C6         14.1129    4.8648   17.5138 C.ar      1 <0>        -0.0500
      8 C7         14.7360    5.1178   16.2885 C.ar      1 <0>        -0.1600
      9 C8         15.6713    4.1318   15.7126 C.2       1 <0>         0.5700
     10 O2         15.8271    4.0731   14.5083 O.2       1 <0>        -0.5300
     11 N1         16.3525    3.2966   16.5219 N.am      1 <0>        -0.7200
     12 C9         17.2809    2.3180   15.9502 C.3       1 <0>         0.1400
     13 C10        18.4110    2.0424   16.9459 C.3       1 <0>        -0.1300
     14 C11        19.3435    0.9749   16.3690 C.3       1 <0>         0.0700
     15 N2         18.5827   -0.2545   16.1119 N.pl3     1 <0>        -0.4700
     16 C12        19.4209   -1.2826   15.7119 C.ar      1 <0>         0.3600
     17 C13        20.1985   -1.1559   14.5593 C.ar      1 <0>        -0.2400
     18 C14        21.0224   -2.2066   14.2057 C.ar      1 <0>         0.1600
     19 N3         21.0440   -3.2945   14.9625 N.ar      1 <0>        -0.5400
     20 C15        20.2934   -3.3856   16.0420 C.ar      1 <0>         0.3200
     21 N4         19.4928   -2.4084   16.4162 N.ar      1 <0>        -0.5600
     22 C16        17.5218   -0.0254   15.1228 C.3       1 <0>         0.0600
     23 C17        16.5348    1.0122   15.6625 C.3       1 <0>        -0.1300
     24 C18        14.4623    6.3092   15.6094 C.ar      1 <0>        -0.0000
     25 N5         12.1395    8.0387   17.7126 N.am      1 <0>        -0.6600
     26 H1         13.9221    9.2693   15.5899 H         1 <0>         0.1300
     27 H2         12.5599    8.4728   14.7406 H         1 <0>         0.1300
     28 H3         12.7707    5.5853   19.0015 H         1 <0>         0.1400
     29 H4         14.3168    3.9447   18.0413 H         1 <0>         0.1400
     30 H5         16.2283    3.3436   17.4827 H         1 <0>         0.4000
     31 H6         17.6997    2.7100   15.0233 H         1 <0>         0.0900
     32 H7         17.9889    1.6872   17.8861 H         1 <0>         0.0800
     33 H8         18.9727    2.9596   17.1221 H         1 <0>         0.0800
     34 H9         20.1413    0.7660   17.0818 H         1 <0>         0.1000
     35 H10        19.7758    1.3364   15.4360 H         1 <0>         0.0600
     36 H11        20.1603   -0.2571   13.9616 H         1 <0>         0.1500
     37 H12        21.6420   -2.1423   13.3233 H         1 <0>         0.1700
     38 H13        20.3354   -4.2865   16.6361 H         1 <0>         0.2000
     39 H14        17.9626    0.3407   14.1956 H         1 <0>         0.0500
     40 H15        16.9964   -0.9607   14.9304 H         1 <0>         0.0900
     41 H16        16.0832    0.6408   16.5825 H         1 <0>         0.0800
     42 H17        15.7561    1.1936   14.9217 H         1 <0>         0.0800
     43 H18        14.9350    6.5124   14.6598 H         1 <0>         0.1400
     44 H19        11.6118    8.0741   18.5258 H         1 <0>         0.4200
@<TRIPOS>BOND
     1    1    2 2
     2    2   25 am
     3    2    3 1
     4    3    4 1
     5    3   26 1
     6    3   27 1
     7    4   24 ar
     8    4    5 ar
     9    5    6 ar
    10    5   25 1
    11    6    7 ar
    12    6   28 1
    13    7    8 ar
    14    7   29 1
    15    8    9 1
    16    8   24 ar
    17    9   10 2
    18    9   11 am
    19   11   12 1
    20   11   30 1
    21   12   23 1
    22   12   13 1
    23   12   31 1
    24   13   14 1
    25   13   32 1
    26   13   33 1
    27   14   15 1
    28   14   34 1
    29   14   35 1
    30   15   16 1
    31   15   22 1
    32   16   21 ar
    33   16   17 ar
    34   17   18 ar
    35   17   36 1
    36   18   19 ar
    37   18   37 1
    38   19   20 ar
    39   20   21 ar
    40   20   38 1
    41   22   23 1
    42   22   39 1
    43   22   40 1
    44   23   41 1
    45   23   42 1
    46   24   43 1
    47   25   44 1
##########                 Name:            smyd3_840
##########          Protonation:                 none
##########               SMILES:   O=C1CC2=CC(C(=O)NC3CCN(C4=NN=CC=C4)CC3)=CC=C2N1
##########            Long Name:   NO_LONG_NAME
##########          FlexRecCode: 1
##########               Number:                 2248
##########   Ligand Source File: /proj/zinc22/users/x_andlu/OGG1/revisions/docking/targets/smyd3/db2gen/split_par
##########                 Rank:                    1
##########               Setnum:                   15
##########             Matchnum:                    3
##########                Cloud:                    1
##########        Electrostatic:           -20.440889
##########                 Gist:             0.000000
##########        Van der Waals:           -33.870190
##########  Ligand Polar Desolv:             7.508879
########## Ligand Apolar Desolv:            -1.631756
##########      Internal Energy:             0.000000
##########      Receptor Energy:             0.000000
########## Receptor Desolvation:             0.000000
########## Receptor Hydrophobic:             0.000000
##########         Total Energy:           -48.433956
##########        Ligand Charge:             0.000000
##########            Arbitrary:    +999.9990
##########        Ligand Energy:             0.000000

@<TRIPOS>MOLECULE
smyd3_840      none
   44    47     0     0     0
SMALL
USER_CHARGES

@<TRIPOS>ATOM
      1 O1         11.5633   10.1361   16.8264 O.2       1 <0>        -0.4900
      2 C1         12.1779    9.0915   16.7853 C.2       1 <0>         0.5300
      3 C2         13.1149    8.6424   15.6841 C.3       1 <0>        -0.1200
      4 C3         13.5982    7.2851   16.1420 C.ar      1 <0>        -0.1500
      5 C4         14.4532    6.3654   15.5953 C.ar      1 <0>        -0.0000
      6 C5         14.7112    5.1668   16.2689 C.ar      1 <0>        -0.1600
      7 C6         15.6335    4.1715   15.6882 C.2       1 <0>         0.5700
      8 O2         15.7883    4.1162   14.4836 O.2       1 <0>        -0.5300
      9 N1         16.3041    3.3239   16.4934 N.am      1 <0>        -0.7200
     10 C7         17.2194    2.3357   15.9171 C.3       1 <0>         0.1400
     11 C8         16.4564    1.0409   15.6244 C.3       1 <0>        -0.1300
     12 C9         17.4297   -0.0069   15.0796 C.3       1 <0>         0.0600
     13 N2         18.4882   -0.2540   16.0670 N.pl3     1 <0>        -0.4700
     14 C10        19.3158   -1.2947   15.6607 C.ar      1 <0>         0.2500
     15 N3         19.4362   -2.3808   16.4100 N.ar      1 <0>        -0.2800
     16 N4         20.1894   -3.3629   16.0703 N.ar      1 <0>        -0.2200
     17 C11        20.8928   -3.3579   14.9557 C.ar      1 <0>         0.0200
     18 C12        20.8345   -2.2645   14.1027 C.ar      1 <0>        -0.1000
     19 C13        20.0187   -1.2028   14.4594 C.ar      1 <0>        -0.1300
     20 C14        19.2649    0.9646   16.3288 C.3       1 <0>         0.0700
     21 C15        18.3464    2.0414   16.9110 C.3       1 <0>        -0.1300
     22 C16        14.0899    4.9189   17.4956 C.ar      1 <0>        -0.0500
     23 C17        13.2306    5.8464   18.0364 C.ar      1 <0>        -0.1500
     24 C18        12.9723    7.0435   17.3657 C.ar      1 <0>         0.1700
     25 N5         12.1551    8.1156   17.7082 N.am      1 <0>        -0.6600
     26 H1         12.5802    8.5585   14.7379 H         1 <0>         0.1300
     27 H2         13.9519    9.3341   15.5888 H         1 <0>         0.1300
     28 H3         14.9281    6.5665   14.6464 H         1 <0>         0.1400
     29 H4         16.1806    3.3679   17.4544 H         1 <0>         0.4000
     30 H5         17.6426    2.7273   14.9919 H         1 <0>         0.0900
     31 H6         16.0007    0.6715   16.5431 H         1 <0>         0.0800
     32 H7         15.6796    1.2355   14.8849 H         1 <0>         0.0800
     33 H8         17.8746    0.3573   14.1537 H         1 <0>         0.0500
     34 H9         16.8923   -0.9347   14.8837 H         1 <0>         0.0900
     35 H10        21.5149   -4.2050   14.7063 H         1 <0>         0.1700
     36 H11        21.4046   -2.2439   13.1855 H         1 <0>         0.1500
     37 H12        19.9333   -0.3298   13.8295 H         1 <0>         0.1500
     38 H13        19.7012    1.3242   15.3971 H         1 <0>         0.0600
     39 H14        20.0604    0.7424   17.0402 H         1 <0>         0.1000
     40 H15        18.9200    2.9507   17.0905 H         1 <0>         0.0800
     41 H16        17.9205    1.6877   17.8499 H         1 <0>         0.0800
     42 H17        14.2848    3.9955   18.0207 H         1 <0>         0.1400
     43 H18        12.7535    5.6481   18.9848 H         1 <0>         0.1400
     44 H19        11.6284    8.1544   18.5218 H         1 <0>         0.4200
@<TRIPOS>BOND
     1    1    2 2
     2    2   25 am
     3    2    3 1
     4    3    4 1
     5    3   26 1
     6    3   27 1
     7    4   24 ar
     8    4    5 ar
     9    5    6 ar
    10    5   28 1
    11    6    7 1
    12    6   22 ar
    13    7    8 2
    14    7    9 am
    15    9   10 1
    16    9   29 1
    17   10   21 1
    18   10   11 1
    19   10   30 1
    20   11   12 1
    21   11   31 1
    22   11   32 1
    23   12   13 1
    24   12   33 1
    25   12   34 1
    26   13   14 1
    27   13   20 1
    28   14   19 ar
    29   14   15 ar
    30   15   16 ar
    31   16   17 ar
    32   17   18 ar
    33   17   35 1
    34   18   19 ar
    35   18   36 1
    36   19   37 1
    37   20   21 1
    38   20   38 1
    39   20   39 1
    40   21   40 1
    41   21   41 1
    42   22   23 ar
    43   22   42 1
    44   23   24 ar
    45   23   43 1
    46   24   25 1
    47   25   44 1
##########                 Name:            smyd3_848
##########          Protonation:                 none
##########               SMILES:   O=C1CC2=C(C=CC(C(=O)NC3CC[NH+](C4CCCC4O)CC3)=C2)N1
##########            Long Name:   NO_LONG_NAME
##########          FlexRecCode: 1
##########               Number:                 2265
##########   Ligand Source File: /proj/zinc22/users/x_andlu/OGG1/revisions/docking/targets/smyd3/db2gen/split_par
##########                 Rank:                    1
##########               Setnum:                   16
##########             Matchnum:                   18
##########                Cloud:                    1
##########        Electrostatic:           -27.545370
##########                 Gist:             0.000000
##########        Van der Waals:           -32.894241
##########  Ligand Polar Desolv:             8.127598
########## Ligand Apolar Desolv:            -1.712893
##########      Internal Energy:             0.000000
##########      Receptor Energy:             0.000000
########## Receptor Desolvation:             0.000000
########## Receptor Hydrophobic:             0.000000
##########         Total Energy:           -54.024910
##########        Ligand Charge:             1.000000
##########            Arbitrary:    +999.9990
##########        Ligand Energy:             0.000000

@<TRIPOS>MOLECULE
smyd3_848      none
   51    54     0     0     0
SMALL
USER_CHARGES

@<TRIPOS>ATOM
      1 O1         11.4081    9.8231   17.1494 O.2       1 <0>        -0.4800
      2 C1         12.1271    8.8523   17.0431 C.2       1 <0>         0.5300
      3 C2         13.1433    8.6015   15.9492 C.3       1 <0>        -0.1200
      4 C3         13.7455    7.2615   16.3057 C.ar      1 <0>        -0.1500
      5 C4         13.1047    6.8469   17.4735 C.ar      1 <0>         0.1800
      6 C5         13.4597    5.6235   18.0461 C.ar      1 <0>        -0.1500
      7 C6         14.4358    4.8403   17.4592 C.ar      1 <0>        -0.0500
      8 C7         15.0712    5.2642   16.2886 C.ar      1 <0>        -0.1700
      9 C8         16.1119    4.4256   15.6623 C.2       1 <0>         0.5700
     10 O2         16.3143    4.5005   14.4658 O.2       1 <0>        -0.5300
     11 N1         16.8378    3.5769   16.4167 N.am      1 <0>        -0.7300
     12 C9         17.8707    2.7445   15.7951 C.3       1 <0>         0.1400
     13 C10        17.2572    1.4133   15.3513 C.3       1 <0>        -0.1600
     14 C11        18.3571    0.5173   14.7772 C.3       1 <0>        -0.0100
     15 N2         19.3792    0.2712   15.8016 N.4       1 <0>        -0.3700
     16 H1         18.9455   -0.1398   16.6146 H         1 <0>         0.4300
     17 C12        20.3915   -0.6507   15.2696 C.3       1 <0>         0.0300
     18 C13        19.7080   -1.7943   14.4919 C.3       1 <0>        -0.1400
     19 C14        20.5655   -3.0420   14.8197 C.3       1 <0>        -0.1200
     20 C15        20.9267   -2.8264   16.3103 C.3       1 <0>        -0.1600
     21 C16        21.1664   -1.3069   16.4256 C.3       1 <0>         0.0900
     22 O3         20.6746   -0.8276   17.6789 O.3       1 <0>        -0.5800
     23 C17        20.0214    1.5362   16.1783 C.3       1 <0>        -0.0000
     24 C18        18.9859    2.4706   16.8082 C.3       1 <0>        -0.1500
     25 C19        14.7140    6.4888   15.7153 C.ar      1 <0>         0.0000
     26 N3         12.1711    7.7972   17.8735 N.am      1 <0>        -0.6600
     27 H2         12.6538    8.5540   14.9764 H         1 <0>         0.1300
     28 H3         13.9086    9.3776   15.9532 H         1 <0>         0.1300
     29 H4         12.9720    5.2920   18.9509 H         1 <0>         0.1400
     30 H5         14.7071    3.8957   17.9069 H         1 <0>         0.1300
     31 H6         16.6763    3.5171   17.3713 H         1 <0>         0.4100
     32 H7         18.2837    3.2621   14.9293 H         1 <0>         0.1100
     33 H8         16.7980    0.9204   16.2083 H         1 <0>         0.0900
     34 H9         16.5009    1.5974   14.5882 H         1 <0>         0.1200
     35 H10        18.8143    1.0105   13.9195 H         1 <0>         0.1300
     36 H11        17.9236   -0.4316   14.4618 H         1 <0>         0.1300
     37 H12        21.0794   -0.1132   14.6167 H         1 <0>         0.1400
     38 H13        18.6842   -1.9331   14.8392 H         1 <0>         0.0900
     39 H14        19.7244   -1.5907   13.4213 H         1 <0>         0.1000
     40 H15        21.4645   -3.0654   14.2038 H         1 <0>         0.0900
     41 H16        19.9868   -3.9566   14.6906 H         1 <0>         0.0900
     42 H17        21.8325   -3.3760   16.5666 H         1 <0>         0.0900
     43 H18        20.1011   -3.1323   16.9530 H         1 <0>         0.0900
     44 H19        22.2303   -1.0886   16.3335 H         1 <0>         0.1000
     45 H20        21.1236   -1.2047   18.4478 H         1 <0>         0.4100
     46 H21        20.4433    2.0076   15.2907 H         1 <0>         0.1200
     47 H22        20.8168    1.3389   16.8971 H         1 <0>         0.1600
     48 H23        19.4645    3.4099   17.0854 H         1 <0>         0.1200
     49 H24        18.5638    2.0003   17.6961 H         1 <0>         0.0900
     50 H25        15.1986    6.8252   14.8107 H         1 <0>         0.1500
     51 H26        11.6149    7.7084   18.6632 H         1 <0>         0.4200
@<TRIPOS>BOND
     1    1    2 2
     2    2   26 am
     3    2    3 1
     4    3    4 1
     5    3   27 1
     6    3   28 1
     7    4   25 ar
     8    4    5 ar
     9    5    6 ar
    10    5   26 1
    11    6    7 ar
    12    6   29 1
    13    7    8 ar
    14    7   30 1
    15    8    9 1
    16    8   25 ar
    17    9   10 2
    18    9   11 am
    19   11   12 1
    20   11   31 1
    21   12   24 1
    22   12   13 1
    23   12   32 1
    24   13   14 1
    25   13   33 1
    26   13   34 1
    27   14   15 1
    28   14   35 1
    29   14   36 1
    30   15   16 1
    31   15   17 1
    32   15   23 1
    33   17   21 1
    34   17   18 1
    35   17   37 1
    36   18   19 1
    37   18   38 1
    38   18   39 1
    39   19   20 1
    40   19   40 1
    41   19   41 1
    42   20   21 1
    43   20   42 1
    44   20   43 1
    45   21   22 1
    46   21   44 1
    47   22   45 1
    48   23   24 1
    49   23   46 1
    50   23   47 1
    51   24   48 1
    52   24   49 1
    53   25   50 1
    54   26   51 1
##########                 Name:            smyd3_849
##########          Protonation:                 none
##########               SMILES:   O=C1CC2=C(C=CC(C(=O)NC3CC[NH+](C4COCC4O)CC3)=C2)N1
##########            Long Name:   NO_LONG_NAME
##########          FlexRecCode: 1
##########               Number:                 2271
##########   Ligand Source File: /proj/zinc22/users/x_andlu/OGG1/revisions/docking/targets/smyd3/db2gen/split_par
##########                 Rank:                    1
##########               Setnum:                   18
##########             Matchnum:                    3
##########                Cloud:                    1
##########        Electrostatic:           -28.390352
##########                 Gist:             0.000000
##########        Van der Waals:           -32.214394
##########  Ligand Polar Desolv:             7.324188
########## Ligand Apolar Desolv:            -0.939656
##########      Internal Energy:             0.000000
##########      Receptor Energy:             0.000000
########## Receptor Desolvation:             0.000000
########## Receptor Hydrophobic:             0.000000
##########         Total Energy:           -54.220211
##########        Ligand Charge:             1.000000
##########            Arbitrary:    +999.9990
##########        Ligand Energy:             0.000000

@<TRIPOS>MOLECULE
smyd3_849      none
   49    52     0     0     0
SMALL
USER_CHARGES

@<TRIPOS>ATOM
      1 O1         11.3671    9.7925   17.1188 O.2       1 <0>        -0.4800
      2 C1         12.0967    8.8290   17.0168 C.2       1 <0>         0.5300
      3 C2         13.1142    8.5835   15.9230 C.3       1 <0>        -0.1200
      4 C3         13.7288    7.2514   16.2878 C.ar      1 <0>        -0.1500
      5 C4         13.0975    6.8373   17.4573 C.ar      1 <0>         0.1900
      6 C5         13.4671    5.6212   18.0363 C.ar      1 <0>        -0.1500
      7 C6         14.4383    4.8418   17.4537 C.ar      1 <0>        -0.0500
      8 C7         15.0724    5.2661   16.2826 C.ar      1 <0>        -0.1700
      9 C8         16.1194    4.4325   15.6604 C.2       1 <0>         0.5700
     10 O2         16.3194    4.5010   14.4631 O.2       1 <0>        -0.5300
     11 N1         16.8541    3.5954   16.4195 N.am      1 <0>        -0.7300
     12 C9         17.8934    2.7680   15.8019 C.3       1 <0>         0.1400
     13 C10        17.2913    1.4285   15.3682 C.3       1 <0>        -0.1600
     14 C11        18.3983    0.5386   14.7987 C.3       1 <0>        -0.0100
     15 N2         19.4242    0.3086   15.8231 N.4       1 <0>        -0.3700
     16 H1         18.9953   -0.1007   16.6395 H         1 <0>         0.4300
     17 C12        20.4439   -0.6078   15.2957 C.3       1 <0>        -0.0000
     18 C13        19.7786   -1.8009   14.5745 C.3       1 <0>         0.0300
     19 O3         20.6096   -2.9381   14.9031 O.3       1 <0>        -0.3400
     20 C14        20.9565   -2.7694   16.2949 C.3       1 <0>         0.0100
     21 C15        21.2367   -1.2584   16.4514 C.3       1 <0>         0.0600
     22 O4         20.7608   -0.7860   17.7133 O.3       1 <0>        -0.5700
     23 C16        20.0555    1.5818   16.1902 C.3       1 <0>        -0.0000
     24 C17        19.0127    2.5112   16.8151 C.3       1 <0>        -0.1500
     25 C18        14.7035    6.4835   15.7015 C.ar      1 <0>         0.0000
     26 N3         12.1537    7.7793   17.8532 N.am      1 <0>        -0.6600
     27 H2         13.8720    9.3669   15.9231 H         1 <0>         0.1300
     28 H3         12.6239    8.5248   14.9512 H         1 <0>         0.1300
     29 H4         12.9842    5.2892   18.9434 H         1 <0>         0.1400
     30 H5         14.7154    3.9006   17.9050 H         1 <0>         0.1300
     31 H6         16.6944    3.5406   17.3746 H         1 <0>         0.4100
     32 H7         18.3004    3.2834   14.9320 H         1 <0>         0.1100
     33 H8         16.8379    0.9374   16.2292 H         1 <0>         0.0900
     34 H9         16.5323    1.6006   14.6051 H         1 <0>         0.1200
     35 H10        18.8498    1.0298   13.9367 H         1 <0>         0.1300
     36 H11        17.9729   -0.4165   14.4904 H         1 <0>         0.1300
     37 H12        21.1172   -0.0804   14.6199 H         1 <0>         0.1600
     38 H13        18.7652   -1.9521   14.9467 H         1 <0>         0.0800
     39 H14        19.7672   -1.6347   13.4974 H         1 <0>         0.1300
     40 H15        21.8482   -3.3478   16.5365 H         1 <0>         0.1200
     41 H16        20.1247   -3.0690   16.9324 H         1 <0>         0.0900
     42 H17        22.3023   -1.0545   16.3457 H         1 <0>         0.1100
     43 H18        19.8271   -0.9763   17.8779 H         1 <0>         0.4200
     44 H19        20.4717    2.0509   15.2987 H         1 <0>         0.1300
     45 H20        20.8536    1.3966   16.9089 H         1 <0>         0.1600
     46 H21        19.4831    3.4566   17.0853 H         1 <0>         0.1200
     47 H22        18.5959    2.0438   17.7073 H         1 <0>         0.0900
     48 H23        15.1839    6.8182   14.7941 H         1 <0>         0.1500
     49 H24        11.5992    7.6884   18.6439 H         1 <0>         0.4200
@<TRIPOS>BOND
     1    1    2 2
     2    2   26 am
     3    2    3 1
     4    3    4 1
     5    3   27 1
     6    3   28 1
     7    4   25 ar
     8    4    5 ar
     9    5    6 ar
    10    5   26 1
    11    6    7 ar
    12    6   29 1
    13    7    8 ar
    14    7   30 1
    15    8    9 1
    16    8   25 ar
    17    9   10 2
    18    9   11 am
    19   11   12 1
    20   11   31 1
    21   12   24 1
    22   12   13 1
    23   12   32 1
    24   13   14 1
    25   13   33 1
    26   13   34 1
    27   14   15 1
    28   14   35 1
    29   14   36 1
    30   15   16 1
    31   15   17 1
    32   15   23 1
    33   17   21 1
    34   17   18 1
    35   17   37 1
    36   18   19 1
    37   18   38 1
    38   18   39 1
    39   19   20 1
    40   20   21 1
    41   20   40 1
    42   20   41 1
    43   21   22 1
    44   21   42 1
    45   22   43 1
    46   23   24 1
    47   23   44 1
    48   23   45 1
    49   24   46 1
    50   24   47 1
    51   25   48 1
    52   26   49 1
##########                 Name:            smyd3_855
##########          Protonation:                 none
##########               SMILES:   O=C1CC2=C(C=CC(C(=O)NC3CC[NH+](C4CCCCC4)CC3)=C2)N1
##########            Long Name:   NO_LONG_NAME
##########          FlexRecCode: 1
##########               Number:                 2289
##########   Ligand Source File: /proj/zinc22/users/x_andlu/OGG1/revisions/docking/targets/smyd3/db2gen/split_par
##########                 Rank:                    1
##########               Setnum:                    6
##########             Matchnum:                   19
##########                Cloud:                    1
##########        Electrostatic:           -28.178925
##########                 Gist:             0.000000
##########        Van der Waals:           -32.215332
##########  Ligand Polar Desolv:             8.471266
########## Ligand Apolar Desolv:            -2.582667
##########      Internal Energy:             0.000000
##########      Receptor Energy:             0.000000
########## Receptor Desolvation:             0.000000
########## Receptor Hydrophobic:             0.000000
##########         Total Energy:           -54.505657
##########        Ligand Charge:             1.000000
##########            Arbitrary:    +999.9990
##########        Ligand Energy:             0.000000

@<TRIPOS>MOLECULE
smyd3_855      none
   53    56     0     0     0
SMALL
USER_CHARGES

@<TRIPOS>ATOM
      1 O1         11.2966    9.8526   16.9731 O.2       1 <0>        -0.4800
      2 C1         12.0152    8.8781   16.9028 C.2       1 <0>         0.5300
      3 C2         12.9689    8.5435   15.7756 C.3       1 <0>        -0.1200
      4 C3         13.6003    7.2379   16.2023 C.ar      1 <0>        -0.1500
      5 C4         13.0304    6.9162   17.4344 C.ar      1 <0>         0.1900
      6 C5         13.4261    5.7432   18.0810 C.ar      1 <0>        -0.1500
      7 C6         14.3638    4.9171   17.5080 C.ar      1 <0>        -0.0500
      8 C7         14.9291    5.2450   16.2725 C.ar      1 <0>        -0.1700
      9 C8         15.9356    4.3582   15.6567 C.2       1 <0>         0.5700
     10 O2         16.0683    4.3359   14.4484 O.2       1 <0>        -0.5300
     11 N1         16.7076    3.5731   16.4341 N.am      1 <0>        -0.7300
     12 C9         17.7066    2.6929   15.8229 C.3       1 <0>         0.1400
     13 C10        17.0749    1.3297   15.5263 C.3       1 <0>        -0.1600
     14 C11        18.1433    0.3907   14.9620 C.3       1 <0>        -0.0100
     15 N2         19.2239    0.2280   15.9420 N.4       1 <0>        -0.3800
     16 H1         18.8408   -0.1164   16.8097 H         1 <0>         0.4200
     17 C12        20.2079   -0.7343   15.4285 C.3       1 <0>         0.0300
     18 C13        19.5261   -2.0833   15.1914 C.3       1 <0>        -0.1400
     19 C14        20.5510   -3.0857   14.6566 C.3       1 <0>        -0.1200
     20 C15        21.6781   -3.2563   15.6771 C.3       1 <0>        -0.1300
     21 C16        22.3598   -1.9072   15.9142 C.3       1 <0>        -0.1200
     22 C17        21.3349   -0.9048   16.4489 C.3       1 <0>        -0.1400
     23 C18        19.8811    1.5192   16.1776 C.3       1 <0>        -0.0000
     24 C19        18.8798    2.5017   16.7885 C.3       1 <0>        -0.1600
     25 C20        14.5341    6.4193   15.6237 C.ar      1 <0>         0.0000
     26 N3         12.1141    7.8928   17.8106 N.am      1 <0>        -0.6600
     27 H2         12.4249    8.4172   14.8395 H         1 <0>         0.1300
     28 H3         13.7275    9.3196   15.6738 H         1 <0>         0.1300
     29 H4         12.9931    5.4834   19.0357 H         1 <0>         0.1400
     30 H5         14.6644    4.0116   18.0140 H         1 <0>         0.1300
     31 H6         16.6017    3.5908   17.3981 H         1 <0>         0.4100
     32 H7         18.0666    3.1385   14.8957 H         1 <0>         0.1100
     33 H8         16.6693    0.9085   16.4462 H         1 <0>         0.0900
     34 H9         16.2744    1.4505   14.7964 H         1 <0>         0.1200
     35 H10        18.5481    0.8125   14.0421 H         1 <0>         0.1300
     36 H11        17.6965   -0.5808   14.7500 H         1 <0>         0.1400
     37 H12        20.6206   -0.3659   14.4894 H         1 <0>         0.1400
     38 H13        19.1133   -2.4519   16.1304 H         1 <0>         0.0900
     39 H14        18.7231   -1.9619   14.4643 H         1 <0>         0.0900
     40 H15        20.9637   -2.7172   13.7175 H         1 <0>         0.0700
     41 H16        20.0652   -4.0467   14.4876 H         1 <0>         0.0800
     42 H17        22.4081   -3.9703   15.2960 H         1 <0>         0.0800
     43 H18        21.2652   -3.6247   16.6161 H         1 <0>         0.0700
     44 H19        22.7726   -1.5386   14.9751 H         1 <0>         0.0700
     45 H20        23.1627   -2.0287   16.6413 H         1 <0>         0.0800
     46 H21        21.8207    0.0562   16.6179 H         1 <0>         0.0900
     47 H22        20.9222   -1.2733   17.3881 H         1 <0>         0.0900
     48 H23        20.2490    1.9170   15.2317 H         1 <0>         0.1300
     49 H24        20.7178    1.3809   16.8623 H         1 <0>         0.1400
     50 H25        19.3691    3.4602   16.9609 H         1 <0>         0.1200
     51 H26        18.5116    2.1049   17.7345 H         1 <0>         0.0900
     52 H27        14.9646    6.6815   14.6685 H         1 <0>         0.1500
     53 H28        11.6044    7.8655   18.6354 H         1 <0>         0.4200
@<TRIPOS>BOND
     1    1    2 2
     2    2   26 am
     3    2    3 1
     4    3    4 1
     5    3   27 1
     6    3   28 1
     7    4   25 ar
     8    4    5 ar
     9    5    6 ar
    10    5   26 1
    11    6    7 ar
    12    6   29 1
    13    7    8 ar
    14    7   30 1
    15    8    9 1
    16    8   25 ar
    17    9   10 2
    18    9   11 am
    19   11   12 1
    20   11   31 1
    21   12   24 1
    22   12   13 1
    23   12   32 1
    24   13   14 1
    25   13   33 1
    26   13   34 1
    27   14   15 1
    28   14   35 1
    29   14   36 1
    30   15   16 1
    31   15   17 1
    32   15   23 1
    33   17   22 1
    34   17   18 1
    35   17   37 1
    36   18   19 1
    37   18   38 1
    38   18   39 1
    39   19   20 1
    40   19   40 1
    41   19   41 1
    42   20   21 1
    43   20   42 1
    44   20   43 1
    45   21   22 1
    46   21   44 1
    47   21   45 1
    48   22   46 1
    49   22   47 1
    50   23   24 1
    51   23   48 1
    52   23   49 1
    53   24   50 1
    54   24   51 1
    55   25   52 1
    56   26   53 1
##########                 Name:            smyd3_856
##########          Protonation:                 none
##########               SMILES:   O=C1CC2=C(C=CC(C(=O)NC3CC[NH+](C4CCOCC4)CC3)=C2)N1
##########            Long Name:   NO_LONG_NAME
##########          FlexRecCode: 1
##########               Number:                 2292
##########   Ligand Source File: /proj/zinc22/users/x_andlu/OGG1/revisions/docking/targets/smyd3/db2gen/split_par
##########                 Rank:                    1
##########               Setnum:                    6
##########             Matchnum:                    3
##########                Cloud:                    1
##########        Electrostatic:           -28.277006
##########                 Gist:             0.000000
##########        Van der Waals:           -32.384922
##########  Ligand Polar Desolv:             9.282678
########## Ligand Apolar Desolv:            -1.950346
##########      Internal Energy:             0.000000
##########      Receptor Energy:             0.000000
########## Receptor Desolvation:             0.000000
########## Receptor Hydrophobic:             0.000000
##########         Total Energy:           -53.329597
##########        Ligand Charge:             1.000000
##########            Arbitrary:    +999.9990
##########        Ligand Energy:             0.000000

@<TRIPOS>MOLECULE
smyd3_856      none
   51    54     0     0     0
SMALL
USER_CHARGES

@<TRIPOS>ATOM
      1 O1         11.2361    9.7687   17.0304 O.2       1 <0>        -0.4800
      2 C1         11.9737    8.8087   16.9570 C.2       1 <0>         0.5300
      3 C2         12.8943    8.4683   15.8043 C.3       1 <0>        -0.1200
      4 C3         13.5694    7.1870   16.2377 C.ar      1 <0>        -0.1500
      5 C4         13.0506    6.8822   17.4965 C.ar      1 <0>         0.1900
      6 C5         13.4948    5.7333   18.1549 C.ar      1 <0>        -0.1500
      7 C6         14.4297    4.9142   17.5675 C.ar      1 <0>        -0.0500
      8 C7         14.9436    5.2250   16.3054 C.ar      1 <0>        -0.1800
      9 C8         15.9470    4.3456   15.6742 C.2       1 <0>         0.5700
     10 O2         16.0372    4.2978   14.4627 O.2       1 <0>        -0.5300
     11 N1         16.7631    3.5954   16.4410 N.am      1 <0>        -0.7300
     12 C9         17.7590    2.7226   15.8146 C.3       1 <0>         0.1400
     13 C10        17.1476    1.3397   15.5719 C.3       1 <0>        -0.1600
     14 C11        18.2158    0.4105   14.9912 C.3       1 <0>        -0.0100
     15 N2         19.3338    0.2940   15.9351 N.4       1 <0>        -0.3800
     16 H1         18.9893   -0.0379   16.8235 H         1 <0>         0.4200
     17 C12        20.3201   -0.6588   15.4086 C.3       1 <0>         0.0200
     18 C13        19.6637   -2.0319   15.2342 C.3       1 <0>        -0.1800
     19 C14        20.7181   -3.0365   14.7626 C.3       1 <0>         0.0600
     20 O3         21.7907   -3.0803   15.7060 O.3       1 <0>        -0.3700
     21 C15        22.4718   -1.8351   15.8731 C.3       1 <0>         0.0600
     22 C16        21.4883   -0.7827   16.3915 C.3       1 <0>        -0.1800
     23 C17        19.9702    1.6041   16.1175 C.3       1 <0>        -0.0100
     24 C18        18.9695    2.5791   16.7415 C.3       1 <0>        -0.1600
     25 C19        14.5000    6.3751   15.6447 C.ar      1 <0>         0.0000
     26 N3         12.1267    7.8475   17.8829 N.am      1 <0>        -0.6600
     27 H2         12.3206    8.3082   14.8914 H         1 <0>         0.1300
     28 H3         13.6313    9.2579   15.6577 H         1 <0>         0.1300
     29 H4         13.1017    5.4869   19.1301 H         1 <0>         0.1400
     30 H5         14.7678    4.0274   18.0828 H         1 <0>         0.1300
     31 H6         16.6910    3.6336   17.4076 H         1 <0>         0.4100
     32 H7         18.0761    3.1540   14.8652 H         1 <0>         0.1100
     33 H8         16.7842    0.9317   16.5150 H         1 <0>         0.0900
     34 H9         16.3193    1.4263   14.8687 H         1 <0>         0.1200
     35 H10        18.5783    0.8193   14.0479 H         1 <0>         0.1300
     36 H11        17.7834   -0.5748   14.8173 H         1 <0>         0.1400
     37 H12        20.6895   -0.3064   14.4455 H         1 <0>         0.1400
     38 H13        19.2492   -2.3610   16.1871 H         1 <0>         0.1000
     39 H14        18.8669   -1.9632   14.4936 H         1 <0>         0.1000
     40 H15        21.1020   -2.7290   13.7899 H         1 <0>         0.0700
     41 H16        20.2669   -4.0253   14.6792 H         1 <0>         0.1200
     42 H17        22.8785   -1.5119   14.9149 H         1 <0>         0.0700
     43 H18        23.2837   -1.9582   16.5897 H         1 <0>         0.1200
     44 H19        21.9952    0.1783   16.4777 H         1 <0>         0.1000
     45 H20        21.1118   -1.0848   17.3687 H         1 <0>         0.1000
     46 H21        20.2953    1.9874   15.1503 H         1 <0>         0.1300
     47 H22        20.8335    1.4998   16.7747 H         1 <0>         0.1400
     48 H23        19.4435    3.5517   16.8744 H         1 <0>         0.1200
     49 H24        18.6439    2.1970   17.7089 H         1 <0>         0.0900
     50 H25        14.8909    6.6241   14.6692 H         1 <0>         0.1500
     51 H26        11.6471    7.8287   18.7258 H         1 <0>         0.4200
@<TRIPOS>BOND
     1    1    2 2
     2    2   26 am
     3    2    3 1
     4    3    4 1
     5    3   27 1
     6    3   28 1
     7    4   25 ar
     8    4    5 ar
     9    5    6 ar
    10    5   26 1
    11    6    7 ar
    12    6   29 1
    13    7    8 ar
    14    7   30 1
    15    8    9 1
    16    8   25 ar
    17    9   10 2
    18    9   11 am
    19   11   12 1
    20   11   31 1
    21   12   24 1
    22   12   13 1
    23   12   32 1
    24   13   14 1
    25   13   33 1
    26   13   34 1
    27   14   15 1
    28   14   35 1
    29   14   36 1
    30   15   16 1
    31   15   17 1
    32   15   23 1
    33   17   22 1
    34   17   18 1
    35   17   37 1
    36   18   19 1
    37   18   38 1
    38   18   39 1
    39   19   20 1
    40   19   40 1
    41   19   41 1
    42   20   21 1
    43   21   22 1
    44   21   42 1
    45   21   43 1
    46   22   44 1
    47   22   45 1
    48   23   24 1
    49   23   46 1
    50   23   47 1
    51   24   48 1
    52   24   49 1
    53   25   50 1
    54   26   51 1
##########                 Name:            smyd3_869
##########          Protonation:                 none
##########               SMILES:   CN(C)C(=O)C[NH+]1CCC(NC(=O)C2=CC=C3NC(=O)CC3=C2)CC1
##########            Long Name:   NO_LONG_NAME
##########          FlexRecCode: 1
##########               Number:                 2340
##########   Ligand Source File: /proj/zinc22/users/x_andlu/OGG1/revisions/docking/targets/smyd3/db2gen/split_par
##########                 Rank:                    1
##########               Setnum:                    7
##########             Matchnum:                    1
##########                Cloud:                    1
##########        Electrostatic:           -30.038963
##########                 Gist:             0.000000
##########        Van der Waals:           -33.440086
##########  Ligand Polar Desolv:             8.423366
########## Ligand Apolar Desolv:            -1.872574
##########      Internal Energy:             0.000000
##########      Receptor Energy:             0.000000
########## Receptor Desolvation:             0.000000
########## Receptor Hydrophobic:             0.000000
##########         Total Energy:           -56.928257
##########        Ligand Charge:             1.000000
##########            Arbitrary:    +999.9990
##########        Ligand Energy:             0.000000

@<TRIPOS>MOLECULE
smyd3_869      none
   50    52     0     0     0
SMALL
USER_CHARGES

@<TRIPOS>ATOM
      1 C1         22.3725   -3.0204   17.5433 C.3       1 <0>         0.0800
      2 N1         21.6131   -2.4614   16.4221 N.am      1 <0>        -0.5900
      3 C2         21.8713   -2.9277   15.0575 C.3       1 <0>         0.0600
      4 C3         20.6768   -1.5182   16.6462 C.2       1 <0>         0.5000
      5 O1         20.4631   -1.1322   17.7759 O.2       1 <0>        -0.5300
      6 C4         19.8955   -0.9431   15.4929 C.3       1 <0>        -0.0300
      7 N2         18.9452    0.0578   15.9959 N.4       1 <0>        -0.3700
      8 H1         18.5400   -0.2705   16.8597 H         1 <0>         0.4300
      9 C5         19.6506    1.3221   16.2374 C.3       1 <0>        -0.0100
     10 C6         18.6827    2.3440   16.8377 C.3       1 <0>        -0.1500
     11 C7         17.5279    2.5806   15.8601 C.3       1 <0>         0.1400
     12 N3         16.5584    3.5002   16.4606 N.am      1 <0>        -0.7300
     13 C8         15.8259    4.3145   15.6750 C.2       1 <0>         0.5700
     14 O2         15.9699    4.2858   14.4681 O.2       1 <0>        -0.5300
     15 C9         14.8493    5.2411   16.2800 C.ar      1 <0>        -0.1700
     16 C10        14.2595    4.9373   17.5097 C.ar      1 <0>        -0.0500
     17 C11        13.3487    5.8003   18.0727 C.ar      1 <0>        -0.1500
     18 C12        13.0060    6.9870   17.4214 C.ar      1 <0>         0.1900
     19 N4         12.1253    7.9994   17.7874 N.am      1 <0>        -0.6600
     20 C13        12.0745    8.9868   16.8779 C.2       1 <0>         0.5300
     21 O3         11.3938    9.9886   16.9399 O.2       1 <0>        -0.4800
     22 C14        13.0257    8.6138   15.7607 C.3       1 <0>        -0.1200
     23 C15        13.6008    7.2847   16.1946 C.ar      1 <0>        -0.1500
     24 C16        14.5070    6.4295   15.6261 C.ar      1 <0>         0.0000
     25 C17        16.8459    1.2432   15.5577 C.3       1 <0>        -0.1600
     26 C18        17.8818    0.2621   15.0049 C.3       1 <0>        -0.0000
     27 H2         22.0441   -2.5549   18.4726 H         1 <0>         0.0700
     28 H3         22.2037   -4.0959   17.5962 H         1 <0>         0.0900
     29 H4         23.4348   -2.8261   17.3954 H         1 <0>         0.0900
     30 H5         21.2156   -2.4018   14.3638 H         1 <0>         0.0800
     31 H6         22.9108   -2.7294   14.7964 H         1 <0>         0.0800
     32 H7         21.6796   -3.9990   14.9974 H         1 <0>         0.0800
     33 H8         19.3501   -1.7414   14.9897 H         1 <0>         0.1600
     34 H9         20.5811   -0.4716   14.7888 H         1 <0>         0.1600
     35 H10        20.0434    1.7042   15.2952 H         1 <0>         0.1300
     36 H11        20.4742    1.1514   16.9309 H         1 <0>         0.1500
     37 H12        19.2079    3.2826   17.0146 H         1 <0>         0.1200
     38 H13        18.2894    1.9637   17.7804 H         1 <0>         0.1000
     39 H14        17.9147    3.0109   14.9363 H         1 <0>         0.1100
     40 H15        16.4436    3.5231   17.4235 H         1 <0>         0.4100
     41 H16        14.5195    4.0215   18.0197 H         1 <0>         0.1300
     42 H17        12.8962    5.5589   19.0231 H         1 <0>         0.1400
     43 H18        11.6063    7.9931   18.6070 H         1 <0>         0.4200
     44 H19        12.4867    8.5079   14.8194 H         1 <0>         0.1300
     45 H20        13.8152    9.3593   15.6662 H         1 <0>         0.1300
     46 H21        14.9570    6.6734   14.6750 H         1 <0>         0.1500
     47 H22        16.4145    0.8393   16.4737 H         1 <0>         0.0900
     48 H23        16.0581    1.3950   14.8198 H         1 <0>         0.1200
     49 H24        18.3124    0.6668   14.0890 H         1 <0>         0.1400
     50 H25        17.3992   -0.6910   14.7887 H         1 <0>         0.1400
@<TRIPOS>BOND
     1    1    2 1
     2    1   27 1
     3    1   28 1
     4    1   29 1
     5    2    3 1
     6    2    4 am
     7    3   30 1
     8    3   31 1
     9    3   32 1
    10    4    5 2
    11    4    6 1
    12    6    7 1
    13    6   33 1
    14    6   34 1
    15    7    8 1
    16    7   26 1
    17    7    9 1
    18    9   10 1
    19    9   35 1
    20    9   36 1
    21   10   11 1
    22   10   37 1
    23   10   38 1
    24   11   12 1
    25   11   25 1
    26   11   39 1
    27   12   13 am
    28   12   40 1
    29   13   14 2
    30   13   15 1
    31   15   24 ar
    32   15   16 ar
    33   16   17 ar
    34   16   41 1
    35   17   18 ar
    36   17   42 1
    37   18   23 ar
    38   18   19 1
    39   19   20 am
    40   19   43 1
    41   20   21 2
    42   20   22 1
    43   22   23 1
    44   22   44 1
    45   22   45 1
    46   23   24 ar
    47   24   46 1
    48   25   26 1
    49   25   47 1
    50   25   48 1
    51   26   49 1
    52   26   50 1
##########                 Name:            smyd3_879
##########          Protonation:                 none
##########               SMILES:   COCC(O)C[NH+]1CCC(NC(=O)C2=CC=C3NC(=O)CC3=C2)CC1
##########            Long Name:   NO_LONG_NAME
##########          FlexRecCode: 1
##########               Number:                 2370
##########   Ligand Source File: /proj/zinc22/users/x_andlu/OGG1/revisions/docking/targets/smyd3/db2gen/split_par
##########                 Rank:                    1
##########               Setnum:                   25
##########             Matchnum:                   10
##########                Cloud:                    1
##########        Electrostatic:           -29.539080
##########                 Gist:             0.000000
##########        Van der Waals:           -32.146420
##########  Ligand Polar Desolv:             6.943470
########## Ligand Apolar Desolv:            -0.919796
##########      Internal Energy:             0.000000
##########      Receptor Energy:             0.000000
########## Receptor Desolvation:             0.000000
########## Receptor Hydrophobic:             0.000000
##########         Total Energy:           -55.661827
##########        Ligand Charge:             1.000000
##########            Arbitrary:    +999.9990
##########        Ligand Energy:             0.000000

@<TRIPOS>MOLECULE
smyd3_879      none
   51    53     0     0     0
SMALL
USER_CHARGES

@<TRIPOS>ATOM
      1 C1         20.9113   -4.8618   15.5183 C.3       1 <0>         0.0300
      2 O1         20.4326   -3.5728   15.9073 O.3       1 <0>        -0.3800
      3 C2         21.4679   -2.6314   16.1972 C.3       1 <0>         0.0300
      4 C3         20.8432   -1.2943   16.6001 C.3       1 <0>         0.0900
      5 O2         20.0292   -1.4792   17.7599 O.3       1 <0>        -0.5400
      6 C4         19.9814   -0.7670   15.4510 C.3       1 <0>        -0.0400
      7 N1         19.0258    0.2209   15.9691 N.4       1 <0>        -0.3800
      8 H1         18.6695   -0.0934   16.8593 H         1 <0>         0.4300
      9 C5         19.7039    1.5110   16.1431 C.3       1 <0>        -0.0100
     10 C6         18.7343    2.5224   16.7585 C.3       1 <0>        -0.1600
     11 C7         17.5304    2.6980   15.8286 C.3       1 <0>         0.1400
     12 N2         16.5622    3.6071   16.4471 N.am      1 <0>        -0.7300
     13 C8         15.7718    4.3774   15.6736 C.2       1 <0>         0.5700
     14 O3         15.8621    4.3180   14.4626 O.2       1 <0>        -0.5300
     15 C9         14.7963    5.2934   16.2967 C.ar      1 <0>        -0.1800
     16 C10        14.2713    5.0088   17.5601 C.ar      1 <0>        -0.0500
     17 C11        13.3620    5.8617   18.1399 C.ar      1 <0>        -0.1500
     18 C12        12.9558    7.0190   17.4726 C.ar      1 <0>         0.1900
     19 N3         12.0632    8.0167   17.8504 N.am      1 <0>        -0.6600
     20 C13        11.9428    8.9756   16.9175 C.2       1 <0>         0.5300
     21 O4         11.2366    9.9594   16.9828 O.2       1 <0>        -0.4800
     22 C14        12.8536    8.5975   15.7687 C.3       1 <0>        -0.1200
     23 C15        13.4862    7.2980   16.2122 C.ar      1 <0>        -0.1500
     24 C16        14.3907    6.4524   15.6268 C.ar      1 <0>         0.0000
     25 C17        16.8750    1.3339   15.5947 C.3       1 <0>        -0.1600
     26 C18        17.9134    0.3666   15.0224 C.3       1 <0>        -0.0000
     27 H2         20.0647   -5.5180   15.3158 H         1 <0>         0.1000
     28 H3         21.5208   -4.7672   14.6197 H         1 <0>         0.0500
     29 H4         21.5136   -5.2838   16.3230 H         1 <0>         0.0500
     30 H5         22.0890   -2.4904   15.3126 H         1 <0>         0.0600
     31 H6         22.0817   -3.0072   17.0159 H         1 <0>         0.0700
     32 H7         21.6328   -0.5762   16.8212 H         1 <0>         0.1300
     33 H8         19.3042   -2.1070   17.6357 H         1 <0>         0.3900
     34 H9         19.4376   -1.5946   14.9955 H         1 <0>         0.1400
     35 H10        20.6207   -0.2971   14.7036 H         1 <0>         0.1400
     36 H11        20.0427    1.8766   15.1737 H         1 <0>         0.1300
     37 H12        20.5624    1.3836   16.8025 H         1 <0>         0.1400
     38 H13        19.2392    3.4800   16.8852 H         1 <0>         0.1200
     39 H14        18.3951    2.1586   17.7283 H         1 <0>         0.1000
     40 H15        17.8625    3.1121   14.8765 H         1 <0>         0.1100
     41 H16        16.4901    3.6546   17.4132 H         1 <0>         0.4100
     42 H17        14.5805    4.1156   18.0826 H         1 <0>         0.1300
     43 H18        12.9596    5.6354   19.1163 H         1 <0>         0.1400
     44 H19        11.5818    8.0195   18.6926 H         1 <0>         0.4200
     45 H20        12.2763    8.4496   14.8561 H         1 <0>         0.1300
     46 H21        13.6160    9.3617   15.6178 H         1 <0>         0.1300
     47 H22        14.7903    6.6814   14.6499 H         1 <0>         0.1400
     48 H23        16.4972    0.9447   16.5402 H         1 <0>         0.0900
     49 H24        16.0508    1.4421   14.8896 H         1 <0>         0.1200
     50 H25        18.2904    0.7565   14.0770 H         1 <0>         0.1300
     51 H26        17.4498   -0.6056   14.8550 H         1 <0>         0.1300
@<TRIPOS>BOND
     1    1    2 1
     2    1   27 1
     3    1   28 1
     4    1   29 1
     5    2    3 1
     6    3    4 1
     7    3   30 1
     8    3   31 1
     9    4    5 1
    10    4    6 1
    11    4   32 1
    12    5   33 1
    13    6    7 1
    14    6   34 1
    15    6   35 1
    16    7    8 1
    17    7   26 1
    18    7    9 1
    19    9   10 1
    20    9   36 1
    21    9   37 1
    22   10   11 1
    23   10   38 1
    24   10   39 1
    25   11   12 1
    26   11   25 1
    27   11   40 1
    28   12   13 am
    29   12   41 1
    30   13   14 2
    31   13   15 1
    32   15   24 ar
    33   15   16 ar
    34   16   17 ar
    35   16   42 1
    36   17   18 ar
    37   17   43 1
    38   18   23 ar
    39   18   19 1
    40   19   20 am
    41   19   44 1
    42   20   21 2
    43   20   22 1
    44   22   23 1
    45   22   45 1
    46   22   46 1
    47   23   24 ar
    48   24   47 1
    49   25   26 1
    50   25   48 1
    51   25   49 1
    52   26   50 1
    53   26   51 1
##########                 Name:            smyd3_881
##########          Protonation:                 none
##########               SMILES:   CC(C)CCC[NH+]1CCC(NC(=O)C2=CC=C3NC(=O)CC3=C2)CC1
##########            Long Name:   NO_LONG_NAME
##########          FlexRecCode: 1
##########               Number:                 2375
##########   Ligand Source File: /proj/zinc22/users/x_andlu/OGG1/revisions/docking/targets/smyd3/db2gen/split_par
##########                 Rank:                    1
##########               Setnum:                   95
##########             Matchnum:                    4
##########                Cloud:                    1
##########        Electrostatic:           -27.419174
##########                 Gist:             0.000000
##########        Van der Waals:           -33.352558
##########  Ligand Polar Desolv:             8.579298
########## Ligand Apolar Desolv:            -2.745559
##########      Internal Energy:             0.000000
##########      Receptor Energy:             0.000000
########## Receptor Desolvation:             0.000000
########## Receptor Hydrophobic:             0.000000
##########         Total Energy:           -54.937996
##########        Ligand Charge:             1.000000
##########            Arbitrary:    +999.9990
##########        Ligand Energy:             0.000000

@<TRIPOS>MOLECULE
smyd3_881      none
   55    57     0     0     0
SMALL
USER_CHARGES

@<TRIPOS>ATOM
      1 C1         21.4070   -3.7344   16.9437 C.3       1 <0>        -0.1500
      2 C2         21.9932   -3.1904   15.6393 C.3       1 <0>        -0.1000
      3 C3         23.0429   -4.1672   15.1054 C.3       1 <0>        -0.1500
      4 C4         20.8758   -3.0281   14.6068 C.3       1 <0>        -0.1100
      5 C5         19.8262   -2.0513   15.1406 C.3       1 <0>        -0.1500
      6 C6         20.4800   -0.6930   15.4026 C.3       1 <0>        -0.0100
      7 N1         19.4722    0.2449   15.9151 N.4       1 <0>        -0.3800
      8 H1         19.0870   -0.1156   16.7753 H         1 <0>         0.4200
      9 C7         20.1018    1.5460   16.1700 C.3       1 <0>        -0.0000
     10 C8         19.0752    2.5030   16.7801 C.3       1 <0>        -0.1600
     11 C9         17.9086    2.6809   15.8042 C.3       1 <0>         0.1400
     12 N2         16.8864    3.5356   16.4134 N.am      1 <0>        -0.7300
     13 C10        16.1074    4.3133   15.6357 C.2       1 <0>         0.5700
     14 O1         16.2529    4.3056   14.4287 O.2       1 <0>        -0.5300
     15 C11        15.0776    5.1743   16.2495 C.ar      1 <0>        -0.1800
     16 C12        14.5064    4.8235   17.4755 C.ar      1 <0>        -0.0500
     17 C13        13.5464    5.6255   18.0467 C.ar      1 <0>        -0.1500
     18 C14        13.1344    6.7965   17.4076 C.ar      1 <0>         0.1900
     19 N3         12.1956    7.7514   17.7834 N.am      1 <0>        -0.6600
     20 C15        12.0868    8.7435   16.8843 C.2       1 <0>         0.5300
     21 O2         11.3483    9.7028   16.9561 O.2       1 <0>        -0.4800
     22 C16        13.0585    8.4389   15.7640 C.3       1 <0>        -0.1200
     23 C17        13.7109    7.1416   16.1844 C.ar      1 <0>        -0.1500
     24 C18        14.6660    6.3473   15.6078 C.ar      1 <0>         0.0000
     25 C19        17.3067    1.3089   15.4876 C.3       1 <0>        -0.1600
     26 C20        18.3988    0.3962   14.9255 C.3       1 <0>        -0.0100
     27 H2         20.6592   -3.0385   17.3239 H         1 <0>         0.0600
     28 H3         20.9413   -4.7021   16.7570 H         1 <0>         0.0500
     29 H4         22.2030   -3.8500   17.6793 H         1 <0>         0.0600
     30 H5         22.4589   -2.2228   15.8259 H         1 <0>         0.0700
     31 H6         23.4604   -3.7797   14.1761 H         1 <0>         0.0600
     32 H7         23.8389   -4.2829   15.8409 H         1 <0>         0.0600
     33 H8         22.5771   -5.1349   14.9188 H         1 <0>         0.0600
     34 H9         20.4102   -3.9957   14.4200 H         1 <0>         0.0700
     35 H10        21.2935   -2.6405   13.6774 H         1 <0>         0.0700
     36 H11        19.4087   -2.4387   16.0699 H         1 <0>         0.0900
     37 H12        19.0302   -1.9354   14.4051 H         1 <0>         0.0900
     38 H13        20.8976   -0.3055   14.4733 H         1 <0>         0.1300
     39 H14        21.2761   -0.8087   16.1381 H         1 <0>         0.1300
     40 H15        20.4714    1.9603   15.2321 H         1 <0>         0.1300
     41 H16        20.9336    1.4168   16.8625 H         1 <0>         0.1400
     42 H17        19.5442    3.4690   16.9669 H         1 <0>         0.1200
     43 H18        18.7049    2.0904   17.7186 H         1 <0>         0.0900
     44 H19        18.2694    3.1429   14.8852 H         1 <0>         0.1100
     45 H20        16.7703    3.5418   17.3763 H         1 <0>         0.4100
     46 H21        14.8198    3.9193   17.9762 H         1 <0>         0.1300
     47 H22        13.1086    5.3479   18.9942 H         1 <0>         0.1400
     48 H23        11.6777    7.7061   18.6024 H         1 <0>         0.4200
     49 H24        12.5269    8.3114   14.8210 H         1 <0>         0.1300
     50 H25        13.8028    9.2307   15.6778 H         1 <0>         0.1300
     51 H26        15.1010    6.6271   14.6596 H         1 <0>         0.1500
     52 H27        16.8999    0.8708   16.3991 H         1 <0>         0.0900
     53 H28        16.5115    1.4214   14.7508 H         1 <0>         0.1200
     54 H29        18.8047    0.8350   14.0141 H         1 <0>         0.1300
     55 H30        17.9732   -0.5813   14.6993 H         1 <0>         0.1400
@<TRIPOS>BOND
     1    1    2 1
     2    1   27 1
     3    1   28 1
     4    1   29 1
     5    2    3 1
     6    2    4 1
     7    2   30 1
     8    3   31 1
     9    3   32 1
    10    3   33 1
    11    4    5 1
    12    4   34 1
    13    4   35 1
    14    5    6 1
    15    5   36 1
    16    5   37 1
    17    6    7 1
    18    6   38 1
    19    6   39 1
    20    7    8 1
    21    7   26 1
    22    7    9 1
    23    9   10 1
    24    9   40 1
    25    9   41 1
    26   10   11 1
    27   10   42 1
    28   10   43 1
    29   11   12 1
    30   11   25 1
    31   11   44 1
    32   12   13 am
    33   12   45 1
    34   13   14 2
    35   13   15 1
    36   15   24 ar
    37   15   16 ar
    38   16   17 ar
    39   16   46 1
    40   17   18 ar
    41   17   47 1
    42   18   23 ar
    43   18   19 1
    44   19   20 am
    45   19   48 1
    46   20   21 2
    47   20   22 1
    48   22   23 1
    49   22   49 1
    50   22   50 1
    51   23   24 ar
    52   24   51 1
    53   25   26 1
    54   25   52 1
    55   25   53 1
    56   26   54 1
    57   26   55 1
##########                 Name:            smyd3_885
##########          Protonation:                 none
##########               SMILES:   COCCCC[NH+]1CCC(NC(=O)C2=CC=C3NC(=O)CC3=C2)CC1
##########            Long Name:   NO_LONG_NAME
##########          FlexRecCode: 1
##########               Number:                 2383
##########   Ligand Source File: /proj/zinc22/users/x_andlu/OGG1/revisions/docking/targets/smyd3/db2gen/split_par
##########                 Rank:                    1
##########               Setnum:                  140
##########             Matchnum:                    1
##########                Cloud:                    1
##########        Electrostatic:           -28.858429
##########                 Gist:             0.000000
##########        Van der Waals:           -32.375835
##########  Ligand Polar Desolv:             8.950096
########## Ligand Apolar Desolv:            -2.060882
##########      Internal Energy:             0.000000
##########      Receptor Energy:             0.000000
########## Receptor Desolvation:             0.000000
########## Receptor Hydrophobic:             0.000000
##########         Total Energy:           -54.345051
##########        Ligand Charge:             1.000000
##########            Arbitrary:    +999.9990
##########        Ligand Energy:             0.000000

@<TRIPOS>MOLECULE
smyd3_885      none
   53    55     0     0     0
SMALL
USER_CHARGES

@<TRIPOS>ATOM
      1 C1         22.1772   -4.3913   17.4513 C.3       1 <0>         0.0300
      2 O1         22.1600   -3.0146   17.0685 O.3       1 <0>        -0.3900
      3 C2         22.2985   -2.8005   15.6625 C.3       1 <0>         0.0600
      4 C3         20.9504   -3.0304   14.9764 C.3       1 <0>        -0.1200
      5 C4         19.9173   -2.0537   15.5417 C.3       1 <0>        -0.1500
      6 C5         20.3806   -0.6179   15.2876 C.3       1 <0>        -0.0100
      7 N1         19.3886    0.3200   15.8303 N.4       1 <0>        -0.3800
      8 H1         19.0485   -0.0278   16.7144 H         1 <0>         0.4200
      9 C6         20.0161    1.6316   16.0309 C.3       1 <0>        -0.0000
     10 C7         19.0099    2.5902   16.6715 C.3       1 <0>        -0.1600
     11 C8         17.7964    2.7387   15.7493 C.3       1 <0>         0.1400
     12 N2         16.7956    3.5950   16.3907 N.am      1 <0>        -0.7300
     13 C9         15.9725    4.3505   15.6369 C.2       1 <0>         0.5700
     14 O2         16.0605    4.3214   14.4246 O.2       1 <0>        -0.5300
     15 C10        14.9642    5.2132   16.2832 C.ar      1 <0>        -0.1800
     16 C11        14.4556    4.8802   17.5413 C.ar      1 <0>        -0.0500
     17 C12        13.5156    5.6838   18.1428 C.ar      1 <0>        -0.1500
     18 C13        13.0616    6.8386   17.5025 C.ar      1 <0>         0.1900
     19 N3         12.1319    7.7915   17.9051 N.am      1 <0>        -0.6600
     20 C14        11.9703    8.7654   16.9941 C.2       1 <0>         0.5300
     21 O3         11.2262    9.7188   17.0833 O.2       1 <0>        -0.4800
     22 C15        12.8908    8.4489   15.8345 C.3       1 <0>        -0.1200
     23 C16        13.5758    7.1659   16.2471 C.ar      1 <0>        -0.1500
     24 C17        14.5105    6.3699   15.6403 C.ar      1 <0>         0.0000
     25 C18        17.1943    1.3552   15.4871 C.3       1 <0>        -0.1600
     26 C19        18.2679    0.4425   14.8905 C.3       1 <0>        -0.0100
     27 H2         22.0671   -4.4693   18.5329 H         1 <0>         0.0500
     28 H3         21.3547   -4.9144   16.9637 H         1 <0>         0.0900
     29 H4         23.1233   -4.8405   17.1492 H         1 <0>         0.0500
     30 H5         23.0345   -3.4963   15.2598 H         1 <0>         0.0500
     31 H6         22.6285   -1.7776   15.4815 H         1 <0>         0.0500
     32 H7         20.6204   -4.0535   15.1573 H         1 <0>         0.0800
     33 H8         21.0561   -2.8671   13.9039 H         1 <0>         0.0800
     34 H9         19.8117   -2.2170   16.6141 H         1 <0>         0.0900
     35 H10        18.9569   -2.2174   15.0529 H         1 <0>         0.0900
     36 H11        20.4862   -0.4544   14.2151 H         1 <0>         0.1300
     37 H12        21.3410   -0.4540   15.7765 H         1 <0>         0.1300
     38 H13        20.3365    2.0315   15.0689 H         1 <0>         0.1300
     39 H14        20.8812    1.5234   16.6851 H         1 <0>         0.1400
     40 H15        19.4772    3.5639   16.8179 H         1 <0>         0.1200
     41 H16        18.6889    2.1919   17.6341 H         1 <0>         0.0900
     42 H17        18.1083    3.1865   14.8057 H         1 <0>         0.1100
     43 H18        16.7253    3.6183   17.3578 H         1 <0>         0.4100
     44 H19        14.8017    3.9887   18.0430 H         1 <0>         0.1300
     45 H20        13.1262    5.4200   19.1150 H         1 <0>         0.1400
     46 H21        11.6541    7.7568   18.7485 H         1 <0>         0.4200
     47 H22        12.3162    8.2985   14.9204 H         1 <0>         0.1300
     48 H23        13.6219    9.2458   15.6983 H         1 <0>         0.1300
     49 H24        14.8971    6.6359   14.6675 H         1 <0>         0.1500
     50 H25        16.8359    0.9307   16.4249 H         1 <0>         0.0900
     51 H26        16.3639    1.4463   14.7871 H         1 <0>         0.1200
     52 H27        18.6255    0.8678   13.9527 H         1 <0>         0.1300
     53 H28        17.8422   -0.5431   14.7028 H         1 <0>         0.1400
@<TRIPOS>BOND
     1    1    2 1
     2    1   27 1
     3    1   28 1
     4    1   29 1
     5    2    3 1
     6    3    4 1
     7    3   30 1
     8    3   31 1
     9    4    5 1
    10    4   32 1
    11    4   33 1
    12    5    6 1
    13    5   34 1
    14    5   35 1
    15    6    7 1
    16    6   36 1
    17    6   37 1
    18    7    8 1
    19    7   26 1
    20    7    9 1
    21    9   10 1
    22    9   38 1
    23    9   39 1
    24   10   11 1
    25   10   40 1
    26   10   41 1
    27   11   12 1
    28   11   25 1
    29   11   42 1
    30   12   13 am
    31   12   43 1
    32   13   14 2
    33   13   15 1
    34   15   24 ar
    35   15   16 ar
    36   16   17 ar
    37   16   44 1
    38   17   18 ar
    39   17   45 1
    40   18   23 ar
    41   18   19 1
    42   19   20 am
    43   19   46 1
    44   20   21 2
    45   20   22 1
    46   22   23 1
    47   22   47 1
    48   22   48 1
    49   23   24 ar
    50   24   49 1
    51   25   26 1
    52   25   50 1
    53   25   51 1
    54   26   52 1
    55   26   53 1
##########                 Name:            smyd3_893
##########          Protonation:                 none
##########               SMILES:   O=C1CC2=C(C=CC(C(=O)NC3CC[NH+](CC4CCCC4)CC3)=C2)N1
##########            Long Name:   NO_LONG_NAME
##########          FlexRecCode: 1
##########               Number:                 2402
##########   Ligand Source File: /proj/zinc22/users/x_andlu/OGG1/revisions/docking/targets/smyd3/db2gen/split_par
##########                 Rank:                    1
##########               Setnum:                   10
##########             Matchnum:                   16
##########                Cloud:                    1
##########        Electrostatic:           -27.525885
##########                 Gist:             0.000000
##########        Van der Waals:           -32.477440
##########  Ligand Polar Desolv:             7.911469
########## Ligand Apolar Desolv:            -2.780369
##########      Internal Energy:             0.000000
##########      Receptor Energy:             0.000000
########## Receptor Desolvation:             0.000000
########## Receptor Hydrophobic:             0.000000
##########         Total Energy:           -54.872227
##########        Ligand Charge:             1.000000
##########            Arbitrary:    +999.9990
##########        Ligand Energy:             0.000000

@<TRIPOS>MOLECULE
smyd3_893      none
   53    56     0     0     0
SMALL
USER_CHARGES

@<TRIPOS>ATOM
      1 O1         11.2997    9.9437   17.0286 O.2       1 <0>        -0.4800
      2 C1         12.0069    8.9611   16.9560 C.2       1 <0>         0.5300
      3 C2         12.9143    8.5897   15.8024 C.3       1 <0>        -0.1200
      4 C3         13.5505    7.2893   16.2377 C.ar      1 <0>        -0.1500
      5 C4         13.0250    7.0037   17.4983 C.ar      1 <0>         0.1900
      6 C5         13.4353    5.8435   18.1589 C.ar      1 <0>        -0.1500
      7 C6         14.3436    4.9948   17.5720 C.ar      1 <0>        -0.0500
      8 C7         14.8643    5.2865   16.3081 C.ar      1 <0>        -0.1700
      9 C8         15.8392    4.3752   15.6775 C.2       1 <0>         0.5700
     10 O2         15.9257    4.3215   14.4659 O.2       1 <0>        -0.5300
     11 N1         16.6335    3.6026   16.4447 N.am      1 <0>        -0.7300
     12 C9         17.6012    2.6981   15.8188 C.3       1 <0>         0.1400
     13 C10        16.9474    1.3339   15.5808 C.3       1 <0>        -0.1600
     14 C11        17.9856    0.3711   15.0006 C.3       1 <0>        -0.0100
     15 N2         19.1013    0.2229   15.9428 N.4       1 <0>        -0.3900
     16 H1         18.7485   -0.0962   16.8327 H         1 <0>         0.4200
     17 C12        20.0566   -0.7605   15.4154 C.3       1 <0>        -0.0000
     18 C13        20.9269   -1.2893   16.5574 C.3       1 <0>        -0.1200
     19 C14        22.1878   -1.9721   15.9882 C.3       1 <0>        -0.1400
     20 C15        22.4239   -3.1786   16.9314 C.3       1 <0>        -0.1200
     21 C16        20.9845   -3.6652   17.2321 C.3       1 <0>        -0.1300
     22 C17        20.1623   -2.3651   17.3481 C.3       1 <0>        -0.1200
     23 C18        19.7778    1.5134   16.1207 C.3       1 <0>        -0.0000
     24 C19        18.8086    2.5201   16.7440 C.3       1 <0>        -0.1600
     25 C20        14.4548    6.4478   15.6452 C.ar      1 <0>         0.0000
     26 N3         12.1319    7.9980   17.8839 N.am      1 <0>        -0.6600
     27 H2         12.3342    8.4450   14.8909 H         1 <0>         0.1300
     28 H3         13.6749    9.3559   15.6525 H         1 <0>         0.1300
     29 H4         13.0365    5.6117   19.1355 H         1 <0>         0.1400
     30 H5         14.6555    4.0994   18.0890 H         1 <0>         0.1300
     31 H6         16.5645    3.6453   17.4113 H         1 <0>         0.4100
     32 H7         17.9295    3.1171   14.8677 H         1 <0>         0.1100
     33 H8         16.5734    0.9396   16.5257 H         1 <0>         0.0900
     34 H9         16.1208    1.4439   14.8789 H         1 <0>         0.1200
     35 H10        18.3587    0.7661   14.0556 H         1 <0>         0.1300
     36 H11        17.5231   -0.6011   14.8302 H         1 <0>         0.1400
     37 H12        19.5123   -1.5880   14.9604 H         1 <0>         0.1300
     38 H13        20.6897   -0.2862   14.6656 H         1 <0>         0.1300
     39 H14        21.2116   -0.4713   17.2190 H         1 <0>         0.1000
     40 H15        22.0093   -2.3140   14.9688 H         1 <0>         0.0700
     41 H16        23.0378   -1.2903   16.0195 H         1 <0>         0.0700
     42 H17        22.9234   -2.8609   17.8466 H         1 <0>         0.0700
     43 H18        22.9984   -3.9578   16.4302 H         1 <0>         0.0800
     44 H19        20.9572   -4.2190   18.1706 H         1 <0>         0.0800
     45 H20        20.6097   -4.2819   16.4152 H         1 <0>         0.0700
     46 H21        20.0766   -2.0696   18.3940 H         1 <0>         0.0800
     47 H22        19.1711   -2.5106   16.9186 H         1 <0>         0.0700
     48 H23        20.1128    1.8840   15.1519 H         1 <0>         0.1300
     49 H24        20.6387    1.3845   16.7767 H         1 <0>         0.1400
     50 H25        19.3121    3.4780   16.8735 H         1 <0>         0.1200
     51 H26        18.4731    2.1512   17.7133 H         1 <0>         0.0900
     52 H27        14.8510    6.6821   14.6682 H         1 <0>         0.1500
     53 H28        11.6536    7.9960   18.7279 H         1 <0>         0.4200
@<TRIPOS>BOND
     1    1    2 2
     2    2   26 am
     3    2    3 1
     4    3    4 1
     5    3   27 1
     6    3   28 1
     7    4   25 ar
     8    4    5 ar
     9    5    6 ar
    10    5   26 1
    11    6    7 ar
    12    6   29 1
    13    7    8 ar
    14    7   30 1
    15    8    9 1
    16    8   25 ar
    17    9   10 2
    18    9   11 am
    19   11   12 1
    20   11   31 1
    21   12   24 1
    22   12   13 1
    23   12   32 1
    24   13   14 1
    25   13   33 1
    26   13   34 1
    27   14   15 1
    28   14   35 1
    29   14   36 1
    30   15   16 1
    31   15   17 1
    32   15   23 1
    33   17   18 1
    34   17   37 1
    35   17   38 1
    36   18   22 1
    37   18   19 1
    38   18   39 1
    39   19   20 1
    40   19   40 1
    41   19   41 1
    42   20   21 1
    43   20   42 1
    44   20   43 1
    45   21   22 1
    46   21   44 1
    47   21   45 1
    48   22   46 1
    49   22   47 1
    50   23   24 1
    51   23   48 1
    52   23   49 1
    53   24   50 1
    54   24   51 1
    55   25   52 1
    56   26   53 1
##########                 Name:            smyd3_894
##########          Protonation:                 none
##########               SMILES:   O=C1CC2=C(C=CC(C(=O)NC3CC[NH+](CC4CCOC4)CC3)=C2)N1
##########            Long Name:   NO_LONG_NAME
##########          FlexRecCode: 1
##########               Number:                 2405
##########   Ligand Source File: /proj/zinc22/users/x_andlu/OGG1/revisions/docking/targets/smyd3/db2gen/split_par
##########                 Rank:                    1
##########               Setnum:                    7
##########             Matchnum:                    5
##########                Cloud:                    1
##########        Electrostatic:           -26.968882
##########                 Gist:             0.000000
##########        Van der Waals:           -33.139404
##########  Ligand Polar Desolv:             8.801661
########## Ligand Apolar Desolv:            -1.893807
##########      Internal Energy:             0.000000
##########      Receptor Energy:             0.000000
########## Receptor Desolvation:             0.000000
########## Receptor Hydrophobic:             0.000000
##########         Total Energy:           -53.200432
##########        Ligand Charge:             1.000000
##########            Arbitrary:    +999.9990
##########        Ligand Energy:             0.000000

@<TRIPOS>MOLECULE
smyd3_894      none
   51    54     0     0     0
SMALL
USER_CHARGES

@<TRIPOS>ATOM
      1 O1         11.2678    9.7562   17.0181 O.2       1 <0>        -0.4800
      2 C1         12.0068    8.7973   16.9447 C.2       1 <0>         0.5300
      3 C2         12.9366    8.4644   15.7973 C.3       1 <0>        -0.1200
      4 C3         13.6094    7.1810   16.2283 C.ar      1 <0>        -0.1500
      5 C4         13.0811    6.8684   17.4811 C.ar      1 <0>         0.1900
      6 C5         13.5212    5.7160   18.1362 C.ar      1 <0>        -0.1500
      7 C6         14.4611    4.9011   17.5512 C.ar      1 <0>        -0.0500
      8 C7         14.9847    5.2198   16.2951 C.ar      1 <0>        -0.1800
      9 C8         15.9935    4.3449   15.6664 C.2       1 <0>         0.5700
     10 O2         16.0932    4.3042   14.4554 O.2       1 <0>        -0.5300
     11 N1         16.8045    3.5910   16.4350 N.am      1 <0>        -0.7300
     12 C9         17.8060    2.7226   15.8112 C.3       1 <0>         0.1400
     13 C10        17.1976    1.3407   15.5556 C.3       1 <0>        -0.1600
     14 C11        18.2710    0.4159   14.9775 C.3       1 <0>        -0.0100
     15 N2         19.3818    0.2947   15.9294 N.4       1 <0>        -0.3900
     16 H1         19.0308   -0.0428   16.8132 H         1 <0>         0.4200
     17 C12        20.3724   -0.6538   15.4033 C.3       1 <0>        -0.0000
     18 C13        21.2481   -1.1647   16.5492 C.3       1 <0>        -0.1600
     19 C14        20.4062   -1.9910   17.5470 C.3       1 <0>        -0.1500
     20 C15        21.0466   -3.3961   17.5051 C.3       1 <0>         0.0400
     21 O3         22.4009   -3.1711   17.0566 O.3       1 <0>        -0.3600
     22 C16        22.3000   -2.1655   16.0218 C.3       1 <0>         0.0300
     23 C17        20.0157    1.6041   16.1244 C.3       1 <0>        -0.0000
     24 C18        19.0095    2.5747   16.7465 C.3       1 <0>        -0.1600
     25 C19        14.5452    6.3733   15.6376 C.ar      1 <0>         0.0000
     26 N3         12.1534    7.8307   17.8661 N.am      1 <0>        -0.6600
     27 H2         12.3701    8.3092   14.8791 H         1 <0>         0.1300
     28 H3         13.6741    9.2554   15.6611 H         1 <0>         0.1300
     29 H4         13.1207    5.4636   19.1069 H         1 <0>         0.1400
     30 H5         14.7961    4.0116   18.0639 H         1 <0>         0.1300
     31 H6         16.7251    3.6234   17.4012 H         1 <0>         0.4100
     32 H7         18.1300    3.1599   14.8666 H         1 <0>         0.1100
     33 H8         16.8273    0.9269   16.4935 H         1 <0>         0.0900
     34 H9         16.3746    1.4308   14.8465 H         1 <0>         0.1200
     35 H10        18.6405    0.8304   14.0396 H         1 <0>         0.1300
     36 H11        17.8409   -0.5688   14.7947 H         1 <0>         0.1400
     37 H12        19.8585   -1.4941   14.9363 H         1 <0>         0.1400
     38 H13        20.9974   -0.1536   14.6635 H         1 <0>         0.1400
     39 H14        21.7343   -0.3321   17.0575 H         1 <0>         0.1100
     40 H15        20.4781   -1.5683   18.5492 H         1 <0>         0.0900
     41 H16        19.3656   -2.0335   17.2253 H         1 <0>         0.0900
     42 H17        21.0455   -3.8435   18.4989 H         1 <0>         0.1100
     43 H18        20.5146   -4.0347   16.7999 H         1 <0>         0.0700
     44 H19        21.9614   -2.6151   15.0883 H         1 <0>         0.0700
     45 H20        23.2590   -1.6677   15.8783 H         1 <0>         0.1000
     46 H21        20.3480    1.9933   15.1620 H         1 <0>         0.1300
     47 H22        20.8738    1.4962   16.7880 H         1 <0>         0.1400
     48 H23        19.4816    3.5468   16.8887 H         1 <0>         0.1200
     49 H24        18.6766    2.1873   17.7094 H         1 <0>         0.1000
     50 H25        14.9434    6.6285   14.6667 H         1 <0>         0.1500
     51 H26        11.6673    7.8066   18.7051 H         1 <0>         0.4200
@<TRIPOS>BOND
     1    1    2 2
     2    2   26 am
     3    2    3 1
     4    3    4 1
     5    3   27 1
     6    3   28 1
     7    4   25 ar
     8    4    5 ar
     9    5    6 ar
    10    5   26 1
    11    6    7 ar
    12    6   29 1
    13    7    8 ar
    14    7   30 1
    15    8    9 1
    16    8   25 ar
    17    9   10 2
    18    9   11 am
    19   11   12 1
    20   11   31 1
    21   12   24 1
    22   12   13 1
    23   12   32 1
    24   13   14 1
    25   13   33 1
    26   13   34 1
    27   14   15 1
    28   14   35 1
    29   14   36 1
    30   15   16 1
    31   15   17 1
    32   15   23 1
    33   17   18 1
    34   17   37 1
    35   17   38 1
    36   18   22 1
    37   18   19 1
    38   18   39 1
    39   19   20 1
    40   19   40 1
    41   19   41 1
    42   20   21 1
    43   20   42 1
    44   20   43 1
    45   21   22 1
    46   22   44 1
    47   22   45 1
    48   23   24 1
    49   23   46 1
    50   23   47 1
    51   24   48 1
    52   24   49 1
    53   25   50 1
    54   26   51 1
##########                 Name:            smyd3_895
##########          Protonation:                 none
##########               SMILES:   O=C1CC2=C(C=CC(C(=O)NC3CC[NH+](CC4CCCO4)CC3)=C2)N1
##########            Long Name:   NO_LONG_NAME
##########          FlexRecCode: 1
##########               Number:                 2408
##########   Ligand Source File: /proj/zinc22/users/x_andlu/OGG1/revisions/docking/targets/smyd3/db2gen/split_par
##########                 Rank:                    1
##########               Setnum:                    6
##########             Matchnum:                   10
##########                Cloud:                    1
##########        Electrostatic:           -28.761440
##########                 Gist:             0.000000
##########        Van der Waals:           -31.962389
##########  Ligand Polar Desolv:             7.584077
########## Ligand Apolar Desolv:            -2.052042
##########      Internal Energy:             0.000000
##########      Receptor Energy:             0.000000
########## Receptor Desolvation:             0.000000
########## Receptor Hydrophobic:             0.000000
##########         Total Energy:           -55.191799
##########        Ligand Charge:             1.000000
##########            Arbitrary:    +999.9990
##########        Ligand Energy:             0.000000

@<TRIPOS>MOLECULE
smyd3_895      none
   51    54     0     0     0
SMALL
USER_CHARGES

@<TRIPOS>ATOM
      1 O1         11.2248    9.7686   17.0094 O.2       1 <0>        -0.4800
      2 C1         11.9698    8.8143   16.9384 C.2       1 <0>         0.5300
      3 C2         12.8927    8.4778   15.7865 C.3       1 <0>        -0.1200
      4 C3         13.5778    7.2029   16.2233 C.ar      1 <0>        -0.1500
      5 C4         13.0615    6.8975   17.4829 C.ar      1 <0>         0.1900
      6 C5         13.5146    5.7538   18.1443 C.ar      1 <0>        -0.1500
      7 C6         14.4556    4.9404   17.5590 C.ar      1 <0>        -0.0500
      8 C7         14.9670    5.2516   16.2960 C.ar      1 <0>        -0.1700
      9 C8         15.9770    4.3783   15.6671 C.2       1 <0>         0.5700
     10 O2         16.0673    4.3278   14.4555 O.2       1 <0>        -0.5300
     11 N1         16.7990    3.6367   16.4356 N.am      1 <0>        -0.7300
     12 C9         17.8014    2.7697   15.8113 C.3       1 <0>         0.1400
     13 C10        17.2003    1.3814   15.5725 C.3       1 <0>        -0.1600
     14 C11        18.2754    0.4588   14.9942 C.3       1 <0>        -0.0000
     15 N2         19.3944    0.3534   15.9382 N.4       1 <0>        -0.3800
     16 H1         19.0526    0.0212   16.8276 H         1 <0>         0.4300
     17 C12        20.3877   -0.5935   15.4140 C.3       1 <0>        -0.0200
     18 C13        21.2749   -1.0874   16.5585 C.3       1 <0>         0.0500
     19 C14        21.9262   -2.4330   16.1729 C.3       1 <0>        -0.1500
     20 C15        21.8662   -3.2229   17.5087 C.3       1 <0>        -0.1600
     21 C16        20.5348   -2.6970   18.1018 C.3       1 <0>         0.0500
     22 O3         20.4795   -1.3110   17.7284 O.3       1 <0>        -0.3900
     23 C17        20.0210    1.6686   16.1167 C.3       1 <0>        -0.0100
     24 C18        19.0132    2.6378   16.7383 C.3       1 <0>        -0.1600
     25 C19        14.5144    6.3965   15.6322 C.ar      1 <0>         0.0000
     26 N3         12.1303    7.8568   17.8669 N.am      1 <0>        -0.6600
     27 H2         12.3202    8.3108   14.8742 H         1 <0>         0.1300
     28 H3         13.6237    9.2727   15.6377 H         1 <0>         0.1300
     29 H4         13.1236    5.5072   19.1203 H         1 <0>         0.1400
     30 H5         14.8008    4.0577   18.0766 H         1 <0>         0.1300
     31 H6         16.7271    3.6771   17.4021 H         1 <0>         0.4100
     32 H7         18.1149    3.2008   14.8606 H         1 <0>         0.1100
     33 H8         16.8402    0.9734   16.5170 H         1 <0>         0.0900
     34 H9         16.3712    1.4598   14.8694 H         1 <0>         0.1200
     35 H10        18.6345    0.8675   14.0498 H         1 <0>         0.1300
     36 H11        17.8507   -0.5304   14.8229 H         1 <0>         0.1300
     37 H12        19.8762   -1.4417   14.9588 H         1 <0>         0.1300
     38 H13        21.0039   -0.0962   14.6650 H         1 <0>         0.1400
     39 H14        22.0477   -0.3489   16.7723 H         1 <0>         0.1100
     40 H15        21.3476   -2.9362   15.3984 H         1 <0>         0.0900
     41 H16        22.9584   -2.2873   15.8546 H         1 <0>         0.1000
     42 H17        22.7092   -2.9715   18.1521 H         1 <0>         0.0900
     43 H18        21.8187   -4.2969   17.3284 H         1 <0>         0.1000
     44 H19        20.5388   -2.7965   19.1873 H         1 <0>         0.1000
     45 H20        19.6895   -3.2376   17.6760 H         1 <0>         0.0700
     46 H21        20.3431    2.0516   15.1484 H         1 <0>         0.1300
     47 H22        20.8852    1.5727   16.7740 H         1 <0>         0.1400
     48 H23        19.4799    3.6143   16.8684 H         1 <0>         0.1200
     49 H24        18.6907    2.2559   17.7069 H         1 <0>         0.1000
     50 H25        14.9031    6.6460   14.6560 H         1 <0>         0.1500
     51 H26        11.6509    7.8366   18.7099 H         1 <0>         0.4200
@<TRIPOS>BOND
     1    1    2 2
     2    2   26 am
     3    2    3 1
     4    3    4 1
     5    3   27 1
     6    3   28 1
     7    4   25 ar
     8    4    5 ar
     9    5    6 ar
    10    5   26 1
    11    6    7 ar
    12    6   29 1
    13    7    8 ar
    14    7   30 1
    15    8    9 1
    16    8   25 ar
    17    9   10 2
    18    9   11 am
    19   11   12 1
    20   11   31 1
    21   12   24 1
    22   12   13 1
    23   12   32 1
    24   13   14 1
    25   13   33 1
    26   13   34 1
    27   14   15 1
    28   14   35 1
    29   14   36 1
    30   15   16 1
    31   15   17 1
    32   15   23 1
    33   17   18 1
    34   17   37 1
    35   17   38 1
    36   18   22 1
    37   18   19 1
    38   18   39 1
    39   19   20 1
    40   19   40 1
    41   19   41 1
    42   20   21 1
    43   20   42 1
    44   20   43 1
    45   21   22 1
    46   21   44 1
    47   21   45 1
    48   23   24 1
    49   23   46 1
    50   23   47 1
    51   24   48 1
    52   24   49 1
    53   25   50 1
    54   26   51 1
##########                 Name:            smyd3_899
##########          Protonation:                 none
##########               SMILES:   CC(C)OCC[NH+]1CCC(NC(=O)C2=CC=C3NC(=O)CC3=C2)CC1
##########            Long Name:   NO_LONG_NAME
##########          FlexRecCode: 1
##########               Number:                 2423
##########   Ligand Source File: /proj/zinc22/users/x_andlu/OGG1/revisions/docking/targets/smyd3/db2gen/split_par
##########                 Rank:                    1
##########               Setnum:                   37
##########             Matchnum:                    1
##########                Cloud:                    1
##########        Electrostatic:           -28.922218
##########                 Gist:             0.000000
##########        Van der Waals:           -31.057653
##########  Ligand Polar Desolv:             8.552198
########## Ligand Apolar Desolv:            -2.480534
##########      Internal Energy:             0.000000
##########      Receptor Energy:             0.000000
########## Receptor Desolvation:             0.000000
########## Receptor Hydrophobic:             0.000000
##########         Total Energy:           -53.908207
##########        Ligand Charge:             1.000000
##########            Arbitrary:    +999.9990
##########        Ligand Energy:             0.000000

@<TRIPOS>MOLECULE
smyd3_899      none
   53    55     0     0     0
SMALL
USER_CHARGES

@<TRIPOS>ATOM
      1 C1         20.7827   -2.3912   19.0516 C.3       1 <0>        -0.1600
      2 C2         21.1138   -2.5376   17.5651 C.3       1 <0>         0.0900
      3 C3         21.5487   -3.9761   17.2786 C.3       1 <0>        -0.1800
      4 O1         19.9569   -2.2256   16.7864 O.3       1 <0>        -0.4000
      5 C4         20.2442   -1.8895   15.4275 C.3       1 <0>         0.0300
      6 C5         20.7147   -0.4356   15.3503 C.3       1 <0>        -0.0000
      7 N1         19.6586    0.4487   15.8606 N.4       1 <0>        -0.3800
      8 H1         19.2289    0.0243   16.6690 H         1 <0>         0.4300
      9 C6         20.2446    1.7395   16.2411 C.3       1 <0>        -0.0100
     10 C7         19.1634    2.6358   16.8486 C.3       1 <0>        -0.1600
     11 C8         18.0553    2.8610   15.8159 C.3       1 <0>         0.1400
     12 N2         16.9804    3.6553   16.4160 N.am      1 <0>        -0.7300
     13 C9         16.2347    4.4715   15.6451 C.2       1 <0>         0.5700
     14 O2         16.4540    4.5485   14.4517 O.2       1 <0>        -0.5300
     15 C10        15.1517    5.2716   16.2496 C.ar      1 <0>        -0.1700
     16 C11        14.5137    4.8286   17.4112 C.ar      1 <0>        -0.0500
     17 C12        13.5042    5.5737   17.9737 C.ar      1 <0>        -0.1500
     18 C13        13.1082    6.7788   17.3901 C.ar      1 <0>         0.1900
     19 N3         12.1286    7.6904   17.7699 N.am      1 <0>        -0.6600
     20 C14        12.0548    8.7397   16.9343 C.2       1 <0>         0.5300
     21 O3         11.2938    9.6797   17.0241 O.2       1 <0>        -0.4800
     22 C15        13.0996    8.5283   15.8592 C.3       1 <0>        -0.1200
     23 C16        13.7515    7.2161   16.2314 C.ar      1 <0>        -0.1500
     24 C17        14.7563    6.4787   15.6637 C.ar      1 <0>         0.0000
     25 C18        17.5020    1.5040   15.3712 C.3       1 <0>        -0.1600
     26 C19        18.6448    0.6498   14.8183 C.3       1 <0>        -0.0000
     27 H2         20.4729   -1.3663   19.2556 H         1 <0>         0.0700
     28 H3         19.9741   -3.0740   19.3126 H         1 <0>         0.0800
     29 H4         21.6650   -2.6292   19.6456 H         1 <0>         0.0600
     30 H5         21.9225   -1.8547   17.3040 H         1 <0>         0.0700
     31 H6         21.7845   -4.0804   16.2195 H         1 <0>         0.0600
     32 H7         22.4311   -4.2142   17.8725 H         1 <0>         0.0800
     33 H8         20.7401   -4.6588   17.5395 H         1 <0>         0.0700
     34 H9         19.3445   -2.0127   14.8247 H         1 <0>         0.1000
     35 H10        21.0280   -2.5455   15.0489 H         1 <0>         0.0700
     36 H11        20.9338   -0.1792   14.3138 H         1 <0>         0.1400
     37 H12        21.6144   -0.3125   15.9531 H         1 <0>         0.1400
     38 H13        20.6624    2.2228   15.3578 H         1 <0>         0.1300
     39 H14        21.0350    1.5769   16.9738 H         1 <0>         0.1300
     40 H15        19.6002    3.5944   17.1287 H         1 <0>         0.1200
     41 H16        18.7449    2.1544   17.7324 H         1 <0>         0.0900
     42 H17        18.4621    3.3902   14.9543 H         1 <0>         0.1100
     43 H18        16.8056    3.5941   17.3681 H         1 <0>         0.4100
     44 H19        14.8143    3.8975   17.8685 H         1 <0>         0.1300
     45 H20        13.0148    5.2250   18.8712 H         1 <0>         0.1400
     46 H21        11.5626    7.5807   18.5499 H         1 <0>         0.4200
     47 H22        12.6296    8.4569   14.8784 H         1 <0>         0.1300
     48 H23        13.8313    9.3361   15.8733 H         1 <0>         0.1300
     49 H24        15.2427    6.8299   14.7657 H         1 <0>         0.1500
     50 H25        17.0491    0.9983   16.2240 H         1 <0>         0.0900
     51 H26        16.7512    1.6537   14.5952 H         1 <0>         0.1200
     52 H27        19.0967    1.1562   13.9655 H         1 <0>         0.1300
     53 H28        18.2540   -0.3170   14.5011 H         1 <0>         0.1400
@<TRIPOS>BOND
     1    1    2 1
     2    1   27 1
     3    1   28 1
     4    1   29 1
     5    2    3 1
     6    2    4 1
     7    2   30 1
     8    3   31 1
     9    3   32 1
    10    3   33 1
    11    4    5 1
    12    5    6 1
    13    5   34 1
    14    5   35 1
    15    6    7 1
    16    6   36 1
    17    6   37 1
    18    7    8 1
    19    7   26 1
    20    7    9 1
    21    9   10 1
    22    9   38 1
    23    9   39 1
    24   10   11 1
    25   10   40 1
    26   10   41 1
    27   11   12 1
    28   11   25 1
    29   11   42 1
    30   12   13 am
    31   12   43 1
    32   13   14 2
    33   13   15 1
    34   15   24 ar
    35   15   16 ar
    36   16   17 ar
    37   16   44 1
    38   17   18 ar
    39   17   45 1
    40   18   23 ar
    41   18   19 1
    42   19   20 am
    43   19   46 1
    44   20   21 2
    45   20   22 1
    46   22   23 1
    47   22   47 1
    48   22   48 1
    49   23   24 ar
    50   24   49 1
    51   25   26 1
    52   25   50 1
    53   25   51 1
    54   26   52 1
    55   26   53 1
##########                 Name:            smyd3_904
##########          Protonation:                 none
##########               SMILES:   CC(C)OC(=O)N1CCC(NC(=O)C2=CC=C3NC(=O)CC3=C2)CC1
##########            Long Name:   NO_LONG_NAME
##########          FlexRecCode: 1
##########               Number:                 2440
##########   Ligand Source File: /proj/zinc22/users/x_andlu/OGG1/revisions/docking/targets/smyd3/db2gen/split_par
##########                 Rank:                    1
##########               Setnum:                   39
##########             Matchnum:                    8
##########                Cloud:                    1
##########        Electrostatic:           -19.156176
##########                 Gist:             0.000000
##########        Van der Waals:           -33.254642
##########  Ligand Polar Desolv:             6.537424
########## Ligand Apolar Desolv:            -1.850994
##########      Internal Energy:             0.000000
##########      Receptor Energy:             0.000000
########## Receptor Desolvation:             0.000000
########## Receptor Hydrophobic:             0.000000
##########         Total Energy:           -47.724392
##########        Ligand Charge:             0.000000
##########            Arbitrary:    +999.9990
##########        Ligand Energy:             0.000000

@<TRIPOS>MOLECULE
smyd3_904      none
   48    50     0     0     0
SMALL
USER_CHARGES

@<TRIPOS>ATOM
      1 C1         20.5704   -4.1117   15.2487 C.3       1 <0>        -0.1700
      2 C2         21.1186   -2.7067   15.5064 C.3       1 <0>         0.1000
      3 C3         22.1781   -2.3719   14.4546 C.3       1 <0>        -0.1500
      4 O1         20.0359   -1.7426   15.4268 O.3       1 <0>        -0.3600
      5 C4         20.1457   -0.6361   16.1860 C.2       1 <0>         0.6500
      6 O2         20.7481   -0.6800   17.2404 O.2       1 <0>        -0.5700
      7 N1         19.5874    0.5203   15.7766 N.am      1 <0>        -0.6000
      8 C5         20.1779    1.8116   16.1542 C.3       1 <0>         0.1300
      9 C6         19.0954    2.6765   16.8075 C.3       1 <0>        -0.1400
     10 C7         17.8964    2.7859   15.8628 C.3       1 <0>         0.1500
     11 N2         16.8726    3.6397   16.4705 N.am      1 <0>        -0.7200
     12 C8         16.0527    4.3695   15.6883 C.2       1 <0>         0.5700
     13 O3         16.1627    4.3192   14.4786 O.2       1 <0>        -0.5300
     14 C9         15.0212    5.2295   16.3006 C.ar      1 <0>        -0.1600
     15 C10        14.4948    4.9125   17.5556 C.ar      1 <0>        -0.0500
     16 C11        13.5337    5.7140   18.1257 C.ar      1 <0>        -0.1500
     17 C12        13.0762    6.8510   17.4567 C.ar      1 <0>         0.1700
     18 N3         12.1273    7.7988   17.8256 N.am      1 <0>        -0.6600
     19 C13        11.9693    8.7538   16.8943 C.2       1 <0>         0.5300
     20 O4         11.2120    9.6992   16.9535 O.2       1 <0>        -0.4900
     21 C14        12.9141    8.4286   15.7568 C.3       1 <0>        -0.1200
     22 C15        13.6082    7.1625   16.2046 C.ar      1 <0>        -0.1500
     23 C16        14.5636    6.3680   15.6287 C.ar      1 <0>        -0.0000
     24 C17        17.3148    1.3929   15.6110 C.3       1 <0>        -0.1500
     25 C18        18.3770    0.5135   14.9437 C.3       1 <0>         0.1100
     26 H1         19.8156   -4.3503   15.9980 H         1 <0>         0.0600
     27 H2         20.1218   -4.1503   14.2561 H         1 <0>         0.0700
     28 H3         21.3831   -4.8355   15.3085 H         1 <0>         0.0800
     29 H4         21.5673   -2.6682   16.4990 H         1 <0>         0.0900
     30 H5         22.5687   -1.3709   14.6383 H         1 <0>         0.0700
     31 H6         22.9909   -3.0957   14.5143 H         1 <0>         0.0800
     32 H7         21.7296   -2.4104   13.4620 H         1 <0>         0.0700
     33 H8         20.5590    2.3132   15.2647 H         1 <0>         0.0800
     34 H9         20.9926    1.6507   16.8603 H         1 <0>         0.1000
     35 H10        19.4947    3.6713   17.0052 H         1 <0>         0.0900
     36 H11        18.7796    2.2179   17.7446 H         1 <0>         0.0800
     37 H12        18.2179    3.2217   14.9169 H         1 <0>         0.1000
     38 H13        16.7847    3.6797   17.4357 H         1 <0>         0.4000
     39 H14        14.8437    4.0349   18.0794 H         1 <0>         0.1300
     40 H15        13.1310    5.4629   19.0957 H         1 <0>         0.1400
     41 H16        11.6355    7.7731   18.6613 H         1 <0>         0.4200
     42 H17        12.3577    8.2544   14.8358 H         1 <0>         0.1300
     43 H18        13.6372    9.2326   15.6190 H         1 <0>         0.1300
     44 H19        14.9637    6.6216   14.6581 H         1 <0>         0.1400
     45 H20        17.0160    0.9465   16.5593 H         1 <0>         0.0700
     46 H21        16.4467    1.4739   14.9569 H         1 <0>         0.0900
     47 H22        18.6113    0.9093   13.9556 H         1 <0>         0.0800
     48 H23        18.0037   -0.5063   14.8499 H         1 <0>         0.1000
@<TRIPOS>BOND
     1    1    2 1
     2    1   26 1
     3    1   27 1
     4    1   28 1
     5    2    3 1
     6    2    4 1
     7    2   29 1
     8    3   30 1
     9    3   31 1
    10    3   32 1
    11    4    5 1
    12    5    6 2
    13    5    7 am
    14    7   25 1
    15    7    8 1
    16    8    9 1
    17    8   33 1
    18    8   34 1
    19    9   10 1
    20    9   35 1
    21    9   36 1
    22   10   11 1
    23   10   24 1
    24   10   37 1
    25   11   12 am
    26   11   38 1
    27   12   13 2
    28   12   14 1
    29   14   23 ar
    30   14   15 ar
    31   15   16 ar
    32   15   39 1
    33   16   17 ar
    34   16   40 1
    35   17   22 ar
    36   17   18 1
    37   18   19 am
    38   18   41 1
    39   19   20 2
    40   19   21 1
    41   21   22 1
    42   21   42 1
    43   21   43 1
    44   22   23 ar
    45   23   44 1
    46   24   25 1
    47   24   45 1
    48   24   46 1
    49   25   47 1
    50   25   48 1
##########                 Name:            smyd3_906
##########          Protonation:                 none
##########               SMILES:   COC(=O)CC1(NC(=O)C2=CC=C3NC(=O)CC3=C2)CC[NH+](C)CC1
##########            Long Name:   NO_LONG_NAME
##########          FlexRecCode: 1
##########               Number:                 2447
##########   Ligand Source File: /proj/zinc22/users/x_andlu/OGG1/revisions/docking/targets/smyd3/db2gen/split_par
##########                 Rank:                    1
##########               Setnum:                   12
##########             Matchnum:                   12
##########                Cloud:                    1
##########        Electrostatic:           -20.729021
##########                 Gist:             0.000000
##########        Van der Waals:           -33.199081
##########  Ligand Polar Desolv:             8.259190
########## Ligand Apolar Desolv:            -2.526091
##########      Internal Energy:             0.000000
##########      Receptor Energy:             0.000000
########## Receptor Desolvation:             0.000000
########## Receptor Hydrophobic:             0.000000
##########         Total Energy:           -48.195004
##########        Ligand Charge:             1.000000
##########            Arbitrary:    +999.9990
##########        Ligand Energy:             0.000000

@<TRIPOS>MOLECULE
smyd3_906      none
   49    51     0     0     0
SMALL
USER_CHARGES

@<TRIPOS>ATOM
      1 C1         21.9878    2.0240   15.6931 C.3       1 <0>         0.0400
      2 O1         20.8433    2.9073   15.8269 O.3       1 <0>        -0.3500
      3 C2         19.6788    2.4776   15.3159 C.2       1 <0>         0.4700
      4 O2         19.6180    1.3989   14.7747 O.2       1 <0>        -0.5100
      5 C3         18.4460    3.3376   15.4228 C.3       1 <0>        -0.1400
      6 C4         17.3663    2.5863   16.2043 C.3       1 <0>         0.1900
      7 N1         16.3840    3.5409   16.7239 N.am      1 <0>        -0.7200
      8 C5         15.6865    4.3202   15.8739 C.2       1 <0>         0.5700
      9 O3         15.8724    4.2310   14.6757 O.2       1 <0>        -0.5300
     10 C6         14.6968    5.2819   16.3976 C.ar      1 <0>        -0.1800
     11 C7         14.0615    5.0431   17.6190 C.ar      1 <0>        -0.0400
     12 C8         13.1433    5.9418   18.1090 C.ar      1 <0>        -0.1500
     13 C9         12.8303    7.0948   17.3864 C.ar      1 <0>         0.1900
     14 N2         11.9462    8.1302   17.6711 N.am      1 <0>        -0.6600
     15 C10        11.9317    9.0690   16.7105 C.2       1 <0>         0.5300
     16 O4         11.2569   10.0769   16.6985 O.2       1 <0>        -0.4800
     17 C11        12.9148    8.6328   15.6451 C.3       1 <0>        -0.1200
     18 C12        13.4627    7.3241   16.1672 C.ar      1 <0>        -0.1500
     19 C13        14.3838    6.4362   15.6719 C.ar      1 <0>         0.0000
     20 C14        18.0106    1.8293   17.3692 C.3       1 <0>        -0.1600
     21 C15        16.9382    1.0159   18.0971 C.3       1 <0>        -0.0000
     22 N3         16.3267    0.0594   17.1667 N.4       1 <0>        -0.3900
     23 H1         17.0439   -0.5319   16.7742 H         1 <0>         0.4300
     24 C16        15.3532   -0.7702   17.8892 C.3       1 <0>        -0.0500
     25 C17        15.6449    0.7821   16.0861 C.3       1 <0>        -0.0100
     26 C18        16.6679    1.5850   15.2797 C.3       1 <0>        -0.1600
     27 H2         22.8622    2.4906   16.1469 H         1 <0>         0.0700
     28 H3         21.7785    1.0794   16.1951 H         1 <0>         0.0700
     29 H4         22.1821    1.8385   14.6367 H         1 <0>         0.1100
     30 H5         18.6927    4.2634   15.9423 H         1 <0>         0.1200
     31 H6         18.0767    3.5689   14.4237 H         1 <0>         0.1400
     32 H7         16.2357    3.6122   17.6800 H         1 <0>         0.4100
     33 H8         14.2951    4.1514   18.1818 H         1 <0>         0.1300
     34 H9         12.6594    5.7532   19.0560 H         1 <0>         0.1400
     35 H10        11.4016    8.1698   18.4729 H         1 <0>         0.4200
     36 H11        13.7139    9.3663   15.5389 H         1 <0>         0.1300
     37 H12        12.4071    8.4816   14.6925 H         1 <0>         0.1300
     38 H13        14.8657    6.6277   14.7244 H         1 <0>         0.1500
     39 H14        18.7785    1.1572   16.9863 H         1 <0>         0.1000
     40 H15        18.4613    2.5412   18.0609 H         1 <0>         0.1400
     41 H16        16.1719    1.6893   18.4811 H         1 <0>         0.1300
     42 H17        17.3938    0.4748   18.9264 H         1 <0>         0.1400
     43 H18        14.8985   -1.4809   17.1991 H         1 <0>         0.1200
     44 H19        15.8597   -1.3123   18.6877 H         1 <0>         0.1300
     45 H20        14.5792   -0.1329   18.3168 H         1 <0>         0.1200
     46 H21        14.9061    1.4604   16.5130 H         1 <0>         0.1300
     47 H22        15.1458    0.0684   15.4309 H         1 <0>         0.1400
     48 H23        16.1595    2.1223   14.4791 H         1 <0>         0.1400
     49 H24        17.4071    0.9075   14.8522 H         1 <0>         0.1100
@<TRIPOS>BOND
     1    1    2 1
     2    1   27 1
     3    1   28 1
     4    1   29 1
     5    2    3 1
     6    3    4 2
     7    3    5 1
     8    5    6 1
     9    5   30 1
    10    5   31 1
    11    6   26 1
    12    6    7 1
    13    6   20 1
    14    7    8 am
    15    7   32 1
    16    8    9 2
    17    8   10 1
    18   10   19 ar
    19   10   11 ar
    20   11   12 ar
    21   11   33 1
    22   12   13 ar
    23   12   34 1
    24   13   18 ar
    25   13   14 1
    26   14   15 am
    27   14   35 1
    28   15   16 2
    29   15   17 1
    30   17   18 1
    31   17   36 1
    32   17   37 1
    33   18   19 ar
    34   19   38 1
    35   20   21 1
    36   20   39 1
    37   20   40 1
    38   21   22 1
    39   21   41 1
    40   21   42 1
    41   22   23 1
    42   22   24 1
    43   22   25 1
    44   24   43 1
    45   24   44 1
    46   24   45 1
    47   25   26 1
    48   25   46 1
    49   25   47 1
    50   26   48 1
    51   26   49 1
##########                 Name:            smyd3_912
##########          Protonation:                 none
##########               SMILES:   CCOC(=O)CN1CCC(NC(=O)C2=CC=C3NC(=O)CC3=C2)CC1
##########            Long Name:   NO_LONG_NAME
##########          FlexRecCode: 1
##########               Number:                 2459
##########   Ligand Source File: /proj/zinc22/users/x_andlu/OGG1/revisions/docking/targets/smyd3/db2gen/split_par
##########                 Rank:                    1
##########               Setnum:                  201
##########             Matchnum:                    1
##########                Cloud:                    1
##########        Electrostatic:           -18.415285
##########                 Gist:             0.000000
##########        Van der Waals:           -33.934433
##########  Ligand Polar Desolv:             7.032061
########## Ligand Apolar Desolv:            -1.719965
##########      Internal Energy:             0.000000
##########      Receptor Energy:             0.000000
########## Receptor Desolvation:             0.000000
########## Receptor Hydrophobic:             0.000000
##########         Total Energy:           -47.037621
##########        Ligand Charge:             0.000000
##########            Arbitrary:    +999.9990
##########        Ligand Energy:             0.000000

@<TRIPOS>MOLECULE
smyd3_912      none
   48    50     0     0     0
SMALL
USER_CHARGES

@<TRIPOS>ATOM
      1 C1         21.4770   -3.6375   18.7194 C.3       1 <0>        -0.1500
      2 C2         22.2507   -3.1748   17.4833 C.3       1 <0>         0.0600
      3 O1         22.0520   -1.7489   17.2936 O.3       1 <0>        -0.3600
      4 C3         21.0122   -1.3745   16.5315 C.2       1 <0>         0.4600
      5 O2         20.0200   -2.0622   16.4836 O.2       1 <0>        -0.4900
      6 C4         21.0828   -0.0967   15.7358 C.3       1 <0>         0.0600
      7 N1         20.0049    0.8057   16.1622 N.3       1 <0>        -0.5300
      8 C5         20.3453    2.2049   15.8746 C.3       1 <0>         0.0600
      9 C6         19.2707    3.1236   16.4607 C.3       1 <0>        -0.1200
     10 C7         17.9140    2.7718   15.8444 C.3       1 <0>         0.1400
     11 N2         16.8719    3.6088   16.4444 N.am      1 <0>        -0.7200
     12 C8         16.1351    4.4277   15.6679 C.2       1 <0>         0.5700
     13 O3         16.3352    4.4718   14.4694 O.2       1 <0>        -0.5300
     14 C9         15.0852    5.2708   16.2724 C.ar      1 <0>        -0.1600
     15 C10        14.4563    4.8718   17.4546 C.ar      1 <0>        -0.0500
     16 C11        13.4781    5.6575   18.0176 C.ar      1 <0>        -0.1500
     17 C12        13.1057    6.8603   17.4140 C.ar      1 <0>         0.1700
     18 N3         12.1592    7.8076   17.7902 N.am      1 <0>        -0.6600
     19 C13        12.0999    8.8399   16.9327 C.2       1 <0>         0.5300
     20 O4         11.3677    9.8032   17.0148 O.2       1 <0>        -0.4900
     21 C14        13.1185    8.5751   15.8444 C.3       1 <0>        -0.1200
     22 C15        13.7399    7.2534   16.2346 C.ar      1 <0>        -0.1500
     23 C16        14.7131    6.4752   15.6661 C.ar      1 <0>        -0.0000
     24 C17        17.6046    1.2968   16.1152 C.3       1 <0>        -0.1200
     25 C18        18.7284    0.4313   15.5406 C.3       1 <0>         0.0500
     26 H1         21.6261   -4.7077   18.8618 H         1 <0>         0.0700
     27 H2         21.8384   -3.1005   19.5964 H         1 <0>         0.0800
     28 H3         20.4152   -3.4338   18.5808 H         1 <0>         0.0700
     29 H4         21.8893   -3.7118   16.6062 H         1 <0>         0.0700
     30 H5         23.3125   -3.3784   17.6219 H         1 <0>         0.0700
     31 H6         20.9698   -0.3223   14.6755 H         1 <0>         0.0800
     32 H7         22.0467    0.3835   15.9046 H         1 <0>         0.1200
     33 H8         20.3993    2.3512   14.7958 H         1 <0>         0.0400
     34 H9         21.3103    2.4431   16.3221 H         1 <0>         0.0900
     35 H10        19.5156    4.1610   16.2334 H         1 <0>         0.0800
     36 H11        19.2258    2.9879   17.5412 H         1 <0>         0.0800
     37 H12        17.9464    2.9456   14.7687 H         1 <0>         0.0900
     38 H13        16.7123    3.5736   17.4005 H         1 <0>         0.4000
     39 H14        14.7390    3.9430   17.9276 H         1 <0>         0.1400
     40 H15        12.9959    5.3429   18.9312 H         1 <0>         0.1400
     41 H16        11.6048    7.7315   18.5825 H         1 <0>         0.4200
     42 H17        12.6289    8.4955   14.8738 H         1 <0>         0.1300
     43 H18        13.8728    9.3618   15.8273 H         1 <0>         0.1300
     44 H19        15.1928    6.7925   14.7520 H         1 <0>         0.1400
     45 H20        17.5327    1.1316   17.1902 H         1 <0>         0.0800
     46 H21        16.6599    1.0301   15.6414 H         1 <0>         0.0700
     47 H22        18.7898    0.5858   14.4633 H         1 <0>         0.0400
     48 H23        18.5188   -0.6186   15.7454 H         1 <0>         0.0900
@<TRIPOS>BOND
     1    1    2 1
     2    1   26 1
     3    1   27 1
     4    1   28 1
     5    2    3 1
     6    2   29 1
     7    2   30 1
     8    3    4 1
     9    4    5 2
    10    4    6 1
    11    6    7 1
    12    6   31 1
    13    6   32 1
    14    7   25 1
    15    7    8 1
    16    8    9 1
    17    8   33 1
    18    8   34 1
    19    9   10 1
    20    9   35 1
    21    9   36 1
    22   10   11 1
    23   10   24 1
    24   10   37 1
    25   11   12 am
    26   11   38 1
    27   12   13 2
    28   12   14 1
    29   14   23 ar
    30   14   15 ar
    31   15   16 ar
    32   15   39 1
    33   16   17 ar
    34   16   40 1
    35   17   22 ar
    36   17   18 1
    37   18   19 am
    38   18   41 1
    39   19   20 2
    40   19   21 1
    41   21   22 1
    42   21   42 1
    43   21   43 1
    44   22   23 ar
    45   23   44 1
    46   24   25 1
    47   24   45 1
    48   24   46 1
    49   25   47 1
    50   25   48 1
##########                 Name:            smyd3_914
##########          Protonation:                 none
##########               SMILES:   O=C1CC2=C(C=CC(C(=O)NC3CC[NH+](C4CCOC4=O)CC3)=C2)N1
##########            Long Name:   NO_LONG_NAME
##########          FlexRecCode: 1
##########               Number:                 2462
##########   Ligand Source File: /proj/zinc22/users/x_andlu/OGG1/revisions/docking/targets/smyd3/db2gen/split_par
##########                 Rank:                    1
##########               Setnum:                   11
##########             Matchnum:                    3
##########                Cloud:                    1
##########        Electrostatic:           -23.523752
##########                 Gist:             0.000000
##########        Van der Waals:           -32.926167
##########  Ligand Polar Desolv:             8.086925
########## Ligand Apolar Desolv:            -2.082117
##########      Internal Energy:             0.000000
##########      Receptor Energy:             0.000000
########## Receptor Desolvation:             0.000000
########## Receptor Hydrophobic:             0.000000
##########         Total Energy:           -50.445114
##########        Ligand Charge:             1.000000
##########            Arbitrary:    +999.9990
##########        Ligand Energy:             0.000000

@<TRIPOS>MOLECULE
smyd3_914      none
   47    50     0     0     0
SMALL
USER_CHARGES

@<TRIPOS>ATOM
      1 O1         11.2078    9.6803   16.8866 O.2       1 <0>        -0.4800
      2 C1         11.9739    8.7406   16.8538 C.2       1 <0>         0.5300
      3 C2         12.9075    8.3808   15.7177 C.3       1 <0>        -0.1200
      4 C3         13.6167    7.1386   16.2067 C.ar      1 <0>        -0.1500
      5 C4         13.1068    6.8713   17.4741 C.ar      1 <0>         0.1900
      6 C5         13.5838    5.7646   18.1801 C.ar      1 <0>        -0.1500
      7 C6         14.5415    4.9483   17.6266 C.ar      1 <0>        -0.0500
      8 C7         15.0533    5.2253   16.3557 C.ar      1 <0>        -0.1700
      9 C8         16.0850    4.3518   15.7632 C.2       1 <0>         0.5700
     10 O2         16.8637    4.7999   14.9440 O.2       1 <0>        -0.5300
     11 N1         16.1639    3.0574   16.1301 N.am      1 <0>        -0.7300
     12 C9         17.1878    2.1903   15.5419 C.3       1 <0>         0.1300
     13 C10        18.4553    2.2398   16.4002 C.3       1 <0>        -0.1500
     14 C11        19.4920    1.2721   15.8252 C.3       1 <0>        -0.0100
     15 N2         18.9490   -0.0917   15.8298 N.4       1 <0>        -0.3700
     16 H1         18.6797   -0.3422   16.7693 H         1 <0>         0.4300
     17 C12        19.9751   -1.0271   15.3501 C.3       1 <0>        -0.0400
     18 C13        21.1707   -1.0614   16.3281 C.3       1 <0>        -0.1700
     19 C14        21.4301   -2.5785   16.4715 C.3       1 <0>         0.0500
     20 O3         20.1353   -3.1955   16.2077 O.3       1 <0>        -0.3100
     21 C15        19.4376   -2.4417   15.3461 C.2       1 <0>         0.4700
     22 O4         18.5171   -2.8330   14.6683 O.2       1 <0>        -0.4000
     23 C16        17.7749   -0.1632   14.9519 C.3       1 <0>        -0.0200
     24 C17        16.6723    0.7492   15.4932 C.3       1 <0>        -0.1600
     25 C18        14.5764    6.3327   15.6472 C.ar      1 <0>         0.0000
     26 N3         12.1531    7.8233   17.8188 N.am      1 <0>        -0.6600
     27 H2         13.6224    9.1846   15.5414 H         1 <0>         0.1300
     28 H3         12.3415    8.1660   14.8113 H         1 <0>         0.1300
     29 H4         13.1959    5.5470   19.1642 H         1 <0>         0.1400
     30 H5         14.9026    4.0922   18.1772 H         1 <0>         0.1300
     31 H6         15.5427    2.6998   16.7838 H         1 <0>         0.4100
     32 H7         17.4179    2.5296   14.5320 H         1 <0>         0.1100
     33 H8         18.2140    1.9494   17.4226 H         1 <0>         0.1000
     34 H9         18.8596    3.2520   16.3942 H         1 <0>         0.1300
     35 H10        19.7327    1.5635   14.8028 H         1 <0>         0.1400
     36 H11        20.3957    1.3050   16.4338 H         1 <0>         0.1400
     37 H12        20.3094   -0.7436   14.3522 H         1 <0>         0.1800
     38 H13        22.0374   -0.5582   15.8996 H         1 <0>         0.1400
     39 H14        20.9001   -0.6214   17.2878 H         1 <0>         0.1100
     40 H15        22.1659   -2.9098   15.7388 H         1 <0>         0.1100
     41 H16        21.7672   -2.8133   17.4812 H         1 <0>         0.1400
     42 H17        18.0523    0.1587   13.9481 H         1 <0>         0.1300
     43 H18        17.4111   -1.1901   14.9156 H         1 <0>         0.1400
     44 H19        15.8019    0.6960   14.8389 H         1 <0>         0.1200
     45 H20        16.3940    0.4279   16.4968 H         1 <0>         0.1000
     46 H21        14.9620    6.5530   14.6627 H         1 <0>         0.1500
     47 H22        11.6715    7.8246   18.6609 H         1 <0>         0.4200
@<TRIPOS>BOND
     1    1    2 2
     2    2   26 am
     3    2    3 1
     4    3    4 1
     5    3   27 1
     6    3   28 1
     7    4   25 ar
     8    4    5 ar
     9    5    6 ar
    10    5   26 1
    11    6    7 ar
    12    6   29 1
    13    7    8 ar
    14    7   30 1
    15    8    9 1
    16    8   25 ar
    17    9   10 2
    18    9   11 am
    19   11   12 1
    20   11   31 1
    21   12   24 1
    22   12   13 1
    23   12   32 1
    24   13   14 1
    25   13   33 1
    26   13   34 1
    27   14   15 1
    28   14   35 1
    29   14   36 1
    30   15   16 1
    31   15   17 1
    32   15   23 1
    33   17   21 1
    34   17   18 1
    35   17   37 1
    36   18   19 1
    37   18   38 1
    38   18   39 1
    39   19   20 1
    40   19   40 1
    41   19   41 1
    42   20   21 1
    43   21   22 2
    44   23   24 1
    45   23   42 1
    46   23   43 1
    47   24   44 1
    48   24   45 1
    49   25   46 1
    50   26   47 1
##########                 Name:            smyd3_916
##########          Protonation:                 none
##########               SMILES:   CS(=O)(=O)CC[NH+]1CCC(NC(=O)C2=CC=C3NC(=O)CC3=C2)CC1
##########            Long Name:   NO_LONG_NAME
##########          FlexRecCode: 1
##########               Number:                 2472
##########   Ligand Source File: /proj/zinc22/users/x_andlu/OGG1/revisions/docking/targets/smyd3/db2gen/split_par
##########                 Rank:                    1
##########               Setnum:                   77
##########             Matchnum:                    1
##########                Cloud:                    1
##########        Electrostatic:           -27.439713
##########                 Gist:             0.000000
##########        Van der Waals:           -33.698845
##########  Ligand Polar Desolv:            10.017727
########## Ligand Apolar Desolv:            -1.207793
##########      Internal Energy:             0.000000
##########      Receptor Energy:             0.000000
########## Receptor Desolvation:             0.000000
########## Receptor Hydrophobic:             0.000000
##########         Total Energy:           -52.328625
##########        Ligand Charge:             1.000000
##########            Arbitrary:    +999.9990
##########        Ligand Energy:             0.000000

@<TRIPOS>MOLECULE
smyd3_916      none
   49    51     0     0     0
SMALL
USER_CHARGES

@<TRIPOS>ATOM
      1 C1         21.4507   -4.0186   15.5748 C.3       1 <0>        -0.6500
      2 S1         22.4497   -2.5284   15.8429 S.o2      1 <0>         2.4300
      3 O1         22.9056   -2.0562   14.5827 O.2       1 <0>        -0.9200
      4 O2         23.3971   -2.7968   16.8674 O.2       1 <0>        -0.9200
      5 C2         21.2179   -1.3623   16.4859 C.3       1 <0>        -0.6800
      6 C3         20.4098   -0.7816   15.3236 C.3       1 <0>         0.0100
      7 N1         19.4123    0.1628   15.8443 N.4       1 <0>        -0.3800
      8 H1         19.0145   -0.2064   16.6949 H         1 <0>         0.4300
      9 C4         20.0595    1.4495   16.1268 C.3       1 <0>        -0.0000
     10 C5         19.0427    2.4115   16.7450 C.3       1 <0>        -0.1600
     11 C6         17.8870    2.6243   15.7630 C.3       1 <0>         0.1400
     12 N2         16.8731    3.4840   16.3787 N.am      1 <0>        -0.7300
     13 C7         16.1125    4.2870   15.6085 C.2       1 <0>         0.5700
     14 O3         16.2679    4.2978   14.4027 O.2       1 <0>        -0.5300
     15 C8         15.0909    5.1530   16.2288 C.ar      1 <0>        -0.1800
     16 C9         14.5043    4.7900   17.4439 C.ar      1 <0>        -0.0500
     17 C10        13.5519    5.5968   18.0212 C.ar      1 <0>        -0.1500
     18 C11        13.1633    6.7849   17.3991 C.ar      1 <0>         0.1900
     19 N3         12.2361    7.7476   17.7840 N.am      1 <0>        -0.6600
     20 C12        12.1500    8.7565   16.9013 C.2       1 <0>         0.5300
     21 O4         11.4257    9.7257   16.9838 O.2       1 <0>        -0.4800
     22 C13        13.1262    8.4563   15.7837 C.3       1 <0>        -0.1200
     23 C14        13.7552    7.1420   16.1868 C.ar      1 <0>        -0.1500
     24 C15        14.7028    6.3431   15.6042 C.ar      1 <0>         0.0000
     25 C16        17.2668    1.2673   15.4179 C.3       1 <0>        -0.1600
     26 C17        18.3496    0.3477   14.8489 C.3       1 <0>        -0.0100
     27 H2         21.0929   -4.3935   16.5337 H         1 <0>         0.1300
     28 H3         20.5992   -3.7756   14.9391 H         1 <0>         0.1400
     29 H4         22.0596   -4.7819   15.0905 H         1 <0>         0.1300
     30 H5         21.7235   -0.5550   17.0158 H         1 <0>         0.1600
     31 H6         20.5477   -1.8824   17.1703 H         1 <0>         0.1600
     32 H7         19.9041   -1.5887   14.7936 H         1 <0>         0.1500
     33 H8         21.0800   -0.2614   14.6392 H         1 <0>         0.1500
     34 H9         20.4433    1.8741   15.1991 H         1 <0>         0.1400
     35 H10        20.8836    1.2955   16.8235 H         1 <0>         0.1400
     36 H11        19.5248    3.3668   16.9524 H         1 <0>         0.1200
     37 H12        18.6585    1.9879   17.6730 H         1 <0>         0.1000
     38 H13        18.2625    3.0963   14.8550 H         1 <0>         0.1100
     39 H14        16.7491    3.4753   17.3407 H         1 <0>         0.4100
     40 H15        14.7996    3.8726   17.9313 H         1 <0>         0.1300
     41 H16        13.1021    5.3097   18.9602 H         1 <0>         0.1400
     42 H17        11.7109    7.6961   18.5978 H         1 <0>         0.4200
     43 H18        12.6005    8.3533   14.8344 H         1 <0>         0.1300
     44 H19        13.8831    9.2378   15.7172 H         1 <0>         0.1300
     45 H20        15.1498    6.6325   14.6646 H         1 <0>         0.1500
     46 H21        16.8459    0.8200   16.3184 H         1 <0>         0.0900
     47 H22        16.4796    1.4048   14.6768 H         1 <0>         0.1200
     48 H23        18.7697    0.7958   13.9484 H         1 <0>         0.1400
     49 H24        17.9110   -0.6192   14.6023 H         1 <0>         0.1400
@<TRIPOS>BOND
     1    1    2 1
     2    1   27 1
     3    1   28 1
     4    1   29 1
     5    2    3 2
     6    2    4 2
     7    2    5 1
     8    5    6 1
     9    5   30 1
    10    5   31 1
    11    6    7 1
    12    6   32 1
    13    6   33 1
    14    7    8 1
    15    7   26 1
    16    7    9 1
    17    9   10 1
    18    9   34 1
    19    9   35 1
    20   10   11 1
    21   10   36 1
    22   10   37 1
    23   11   12 1
    24   11   25 1
    25   11   38 1
    26   12   13 am
    27   12   39 1
    28   13   14 2
    29   13   15 1
    30   15   24 ar
    31   15   16 ar
    32   16   17 ar
    33   16   40 1
    34   17   18 ar
    35   17   41 1
    36   18   23 ar
    37   18   19 1
    38   19   20 am
    39   19   42 1
    40   20   21 2
    41   20   22 1
    42   22   23 1
    43   22   43 1
    44   22   44 1
    45   23   24 ar
    46   24   45 1
    47   25   26 1
    48   25   46 1
    49   25   47 1
    50   26   48 1
    51   26   49 1
##########                 Name:            smyd3_926
##########          Protonation:                 none
##########               SMILES:   CC(C)S(=O)(=O)N1CCC(NC(=O)C2=CC=C3NC(=O)CC3=C2)CC1
##########            Long Name:   NO_LONG_NAME
##########          FlexRecCode: 1
##########               Number:                 2495
##########   Ligand Source File: /proj/zinc22/users/x_andlu/OGG1/revisions/docking/targets/smyd3/db2gen/split_par
##########                 Rank:                    1
##########               Setnum:                    4
##########             Matchnum:                    7
##########                Cloud:                    1
##########        Electrostatic:           -19.938501
##########                 Gist:             0.000000
##########        Van der Waals:           -34.907589
##########  Ligand Polar Desolv:             7.360137
########## Ligand Apolar Desolv:            -1.081372
##########      Internal Energy:             0.000000
##########      Receptor Energy:             0.000000
########## Receptor Desolvation:             0.000000
########## Receptor Hydrophobic:             0.000000
##########         Total Energy:           -48.567326
##########        Ligand Charge:             0.000000
##########            Arbitrary:    +999.9990
##########        Ligand Energy:             0.000000

@<TRIPOS>MOLECULE
smyd3_926      none
   48    50     0     0     0
SMALL
USER_CHARGES

@<TRIPOS>ATOM
      1 C1         21.9110   -2.9427   15.5686 C.3       1 <0>        -0.1500
      2 C2         21.1556   -1.6935   15.1110 C.3       1 <0>        -0.5900
      3 C3         20.4648   -1.9760   13.7754 C.3       1 <0>        -0.1400
      4 S1         19.9107   -1.2504   16.3539 S.o2      1 <0>         2.6100
      5 O1         20.5287   -0.9830   17.6051 O.2       1 <0>        -0.9500
      6 O2         18.7854   -2.1131   16.2621 O.2       1 <0>        -0.9500
      7 N1         19.3379    0.2223   15.8582 N.pl3     1 <0>        -1.0000
      8 C4         19.9696    1.4655   16.3209 C.3       1 <0>         0.1200
      9 C5         18.8928    2.3673   16.9327 C.3       1 <0>        -0.1400
     10 C6         17.7682    2.5744   15.9157 C.3       1 <0>         0.1500
     11 N2         16.7526    3.4634   16.4854 N.am      1 <0>        -0.7200
     12 C7         16.0278    4.2631   15.6783 C.2       1 <0>         0.5700
     13 O3         16.2168    4.2468   14.4773 O.2       1 <0>        -0.5300
     14 C8         15.0048    5.1590   16.2522 C.ar      1 <0>        -0.1600
     15 C9         14.3785    4.8309   17.4575 C.ar      1 <0>        -0.0500
     16 C10        13.4254    5.6657   17.9920 C.ar      1 <0>        -0.1500
     17 C11        13.0758    6.8478   17.3362 C.ar      1 <0>         0.1700
     18 N3         12.1561    7.8344   17.6764 N.am      1 <0>        -0.6600
     19 C12        12.1128    8.8268   16.7720 C.2       1 <0>         0.5300
     20 O4         11.4049    9.8106   16.8157 O.2       1 <0>        -0.4900
     21 C13        13.1135    8.4869   15.6881 C.3       1 <0>        -0.1200
     22 C14        13.7070    7.1699   16.1340 C.ar      1 <0>        -0.1500
     23 C15        14.6554    6.3426   15.5937 C.ar      1 <0>        -0.0000
     24 C16        17.1316    1.2251   15.5752 C.3       1 <0>        -0.1400
     25 C17        18.1881    0.3104   14.9478 C.3       1 <0>         0.1200
     26 H1         22.4032   -2.7415   16.5202 H         1 <0>         0.0700
     27 H2         21.2089   -3.7678   15.6900 H         1 <0>         0.0800
     28 H3         22.6589   -3.2090   14.8220 H         1 <0>         0.0700
     29 H4         21.8576   -0.8685   14.9896 H         1 <0>         0.1300
     30 H5         19.9266   -1.0859   13.4493 H         1 <0>         0.0700
     31 H6         21.2127   -2.2421   13.0285 H         1 <0>         0.0700
     32 H7         19.7629   -2.8010   13.8967 H         1 <0>         0.0800
     33 H8         20.4362    1.9741   15.4775 H         1 <0>         0.0700
     34 H9         20.7248    1.2364   17.0728 H         1 <0>         0.1000
     35 H10        19.3304    3.3313   17.1926 H         1 <0>         0.0800
     36 H11        18.4902    1.8964   17.8296 H         1 <0>         0.0800
     37 H12        18.1760    3.0225   15.0097 H         1 <0>         0.0900
     38 H13        16.6016    3.4763   17.4435 H         1 <0>         0.4000
     39 H14        14.6438    3.9186   17.9709 H         1 <0>         0.1300
     40 H15        12.9451    5.4059   18.9238 H         1 <0>         0.1400
     41 H16        11.6083    7.8089   18.4764 H         1 <0>         0.4200
     42 H17        12.6122    8.3741   14.7268 H         1 <0>         0.1300
     43 H18        13.8863    9.2532   15.6274 H         1 <0>         0.1300
     44 H19        15.1331    6.6051   14.6613 H         1 <0>         0.1400
     45 H20        16.7458    0.7649   16.4849 H         1 <0>         0.0700
     46 H21        16.3152    1.3758   14.8687 H         1 <0>         0.0800
     47 H22        18.5096    0.7249   13.9923 H         1 <0>         0.0700
     48 H23        17.7682   -0.6835   14.7921 H         1 <0>         0.1000
@<TRIPOS>BOND
     1    1    2 1
     2    1   26 1
     3    1   27 1
     4    1   28 1
     5    2    3 1
     6    2    4 1
     7    2   29 1
     8    3   30 1
     9    3   31 1
    10    3   32 1
    11    4    5 2
    12    4    6 2
    13    4    7 1
    14    7   25 1
    15    7    8 1
    16    8    9 1
    17    8   33 1
    18    8   34 1
    19    9   10 1
    20    9   35 1
    21    9   36 1
    22   10   11 1
    23   10   24 1
    24   10   37 1
    25   11   12 am
    26   11   38 1
    27   12   13 2
    28   12   14 1
    29   14   23 ar
    30   14   15 ar
    31   15   16 ar
    32   15   39 1
    33   16   17 ar
    34   16   40 1
    35   17   22 ar
    36   17   18 1
    37   18   19 am
    38   18   41 1
    39   19   20 2
    40   19   21 1
    41   21   22 1
    42   21   42 1
    43   21   43 1
    44   22   23 ar
    45   23   44 1
    46   24   25 1
    47   24   45 1
    48   24   46 1
    49   25   47 1
    50   25   48 1
##########                 Name:            smyd3_927
##########          Protonation:                 none
##########               SMILES:   O=C1CC2=C(C=CC(C(=O)NC3CCN(S(=O)(=O)C4CC4)CC3)=C2)N1
##########            Long Name:   NO_LONG_NAME
##########          FlexRecCode: 1
##########               Number:                 2496
##########   Ligand Source File: /proj/zinc22/users/x_andlu/OGG1/revisions/docking/targets/smyd3/db2gen/split_par
##########                 Rank:                    1
##########               Setnum:                   55
##########             Matchnum:                   19
##########                Cloud:                    1
##########        Electrostatic:           -20.253944
##########                 Gist:             0.000000
##########        Van der Waals:           -34.081516
##########  Ligand Polar Desolv:             7.913114
########## Ligand Apolar Desolv:            -1.097274
##########      Internal Energy:             0.000000
##########      Receptor Energy:             0.000000
########## Receptor Desolvation:             0.000000
########## Receptor Hydrophobic:             0.000000
##########         Total Energy:           -47.519623
##########        Ligand Charge:             0.000000
##########            Arbitrary:    +999.9990
##########        Ligand Energy:             0.000000

@<TRIPOS>MOLECULE
smyd3_927      none
   46    49     0     0     0
SMALL
USER_CHARGES

@<TRIPOS>ATOM
      1 O1         11.3214    9.8324   16.6424 O.2       1 <0>        -0.4900
      2 C1         12.0331    8.8506   16.6637 C.2       1 <0>         0.5300
      3 C2         12.9915    8.4112   15.5772 C.3       1 <0>        -0.1200
      4 C3         13.6098    7.1436   16.1215 C.ar      1 <0>        -0.1500
      5 C4         13.0294    6.9358   17.3731 C.ar      1 <0>         0.1700
      6 C5         13.4119    5.8215   18.1232 C.ar      1 <0>        -0.1500
      7 C6         14.3469    4.9416   17.6320 C.ar      1 <0>        -0.0500
      8 C7         14.9226    5.1551   16.3764 C.ar      1 <0>        -0.1600
      9 C8         15.9265    4.2106   15.8486 C.2       1 <0>         0.5700
     10 O2         16.0673    4.0811   14.6480 O.2       1 <0>        -0.5300
     11 N1         16.6873    3.4918   16.6978 N.am      1 <0>        -0.7300
     12 C9         17.6839    2.5543   16.1740 C.3       1 <0>         0.1500
     13 C10        16.9870    1.4969   15.3146 C.3       1 <0>        -0.1500
     14 C11        18.0356    0.5391   14.7406 C.3       1 <0>         0.1200
     15 N2         18.8302   -0.0108   15.8475 N.pl3     1 <0>        -1.0000
     16 S1         19.0022   -1.6474   16.0310 S.o2      1 <0>         2.6400
     17 O3         18.5407   -1.9027   17.3506 O.2       1 <0>        -0.9500
     18 O4         18.3367   -2.1985   14.9029 O.2       1 <0>        -0.9500
     19 C12        20.7904   -1.9304   15.9162 C.3       1 <0>        -0.6900
     20 C13        21.3701   -2.2340   14.5332 C.3       1 <0>        -0.1300
     21 C14        21.2613   -3.3465   15.5790 C.3       1 <0>        -0.1300
     22 C15        19.4696    0.9194   16.7881 C.3       1 <0>         0.1300
     23 C16        18.4050    1.8730   17.3393 C.3       1 <0>        -0.1400
     24 C17        14.5407    6.2704   15.6238 C.ar      1 <0>        -0.0000
     25 N3         12.1184    7.9484   17.6553 N.am      1 <0>        -0.6600
     26 H1         12.4527    8.2069   14.6519 H         1 <0>         0.1300
     27 H2         13.7569    9.1698   15.4129 H         1 <0>         0.1300
     28 H3         12.9706    5.6500   19.0940 H         1 <0>         0.1400
     29 H4         14.6374    4.0823   18.2181 H         1 <0>         0.1300
     30 H5         16.5751    3.5951   17.6557 H         1 <0>         0.4000
     31 H6         18.4081    3.0964   15.5659 H         1 <0>         0.1000
     32 H7         16.2804    0.9378   15.9279 H         1 <0>         0.0700
     33 H8         16.4543    1.9849   14.4984 H         1 <0>         0.0800
     34 H9         18.6886    1.0800   14.0556 H         1 <0>         0.0800
     35 H10        17.5377   -0.2724   14.2100 H         1 <0>         0.1000
     36 H11        21.4038   -1.3458   16.6018 H         1 <0>         0.1600
     37 H12        20.6772   -2.2638   13.6924 H         1 <0>         0.1200
     38 H13        22.3652   -1.8496   14.3092 H         1 <0>         0.1100
     39 H14        22.1849   -3.6934   16.0425 H         1 <0>         0.1200
     40 H15        20.4967   -4.1082   15.4262 H         1 <0>         0.1100
     41 H16        20.2395    1.4913   16.2702 H         1 <0>         0.0800
     42 H17        19.9179    0.3587   17.6085 H         1 <0>         0.1000
     43 H18        18.8814    2.6284   17.9639 H         1 <0>         0.0900
     44 H19        17.6849    1.3105   17.9337 H         1 <0>         0.0700
     45 H20        14.9796    6.4444   14.6524 H         1 <0>         0.1400
     46 H21        11.6033    7.9977   18.4757 H         1 <0>         0.4200
@<TRIPOS>BOND
     1    1    2 2
     2    2   25 am
     3    2    3 1
     4    3    4 1
     5    3   26 1
     6    3   27 1
     7    4   24 ar
     8    4    5 ar
     9    5    6 ar
    10    5   25 1
    11    6    7 ar
    12    6   28 1
    13    7    8 ar
    14    7   29 1
    15    8    9 1
    16    8   24 ar
    17    9   10 2
    18    9   11 am
    19   11   12 1
    20   11   30 1
    21   12   23 1
    22   12   13 1
    23   12   31 1
    24   13   14 1
    25   13   32 1
    26   13   33 1
    27   14   15 1
    28   14   34 1
    29   14   35 1
    30   15   16 1
    31   15   22 1
    32   16   17 2
    33   16   18 2
    34   16   19 1
    35   19   21 1
    36   19   20 1
    37   19   36 1
    38   20   21 1
    39   20   37 1
    40   20   38 1
    41   21   39 1
    42   21   40 1
    43   22   23 1
    44   22   41 1
    45   22   42 1
    46   23   43 1
    47   23   44 1
    48   24   45 1
    49   25   46 1
##########                 Name:            smyd3_928
##########          Protonation:                 none
##########               SMILES:   CCCS(=O)(=O)N1CCC(NC(=O)C2=CC=C3NC(=O)CC3=C2)CC1
##########            Long Name:   NO_LONG_NAME
##########          FlexRecCode: 1
##########               Number:                 2499
##########   Ligand Source File: /proj/zinc22/users/x_andlu/OGG1/revisions/docking/targets/smyd3/db2gen/split_par
##########                 Rank:                    1
##########               Setnum:                    3
##########             Matchnum:                    7
##########                Cloud:                    1
##########        Electrostatic:           -21.400497
##########                 Gist:             0.000000
##########        Van der Waals:           -33.661388
##########  Ligand Polar Desolv:             7.848378
########## Ligand Apolar Desolv:            -0.998108
##########      Internal Energy:             0.000000
##########      Receptor Energy:             0.000000
########## Receptor Desolvation:             0.000000
########## Receptor Hydrophobic:             0.000000
##########         Total Energy:           -48.211617
##########        Ligand Charge:             0.000000
##########            Arbitrary:    +999.9990
##########        Ligand Energy:             0.000000

@<TRIPOS>MOLECULE
smyd3_928      none
   48    50     0     0     0
SMALL
USER_CHARGES

@<TRIPOS>ATOM
      1 C1         22.6939   -3.2954   14.2621 C.3       1 <0>        -0.1500
      2 C2         21.7173   -2.8925   15.3688 C.3       1 <0>        -0.1200
      3 C3         20.9303   -1.6561   14.9294 C.3       1 <0>        -0.6300
      4 S1         19.7724   -1.1784   16.2415 S.o2      1 <0>         2.6000
      5 O1         20.4739   -0.8764   17.4399 O.2       1 <0>        -0.9500
      6 O2         18.6449   -2.0431   16.2508 O.2       1 <0>        -0.9500
      7 N1         19.1646    0.2800   15.7455 N.pl3     1 <0>        -1.0000
      8 C4         19.8242    1.5355   16.1294 C.3       1 <0>         0.1200
      9 C5         18.7904    2.4542   16.7881 C.3       1 <0>        -0.1400
     10 C6         17.5985    2.6332   15.8449 C.3       1 <0>         0.1500
     11 N2         16.6227    3.5379   16.4578 N.am      1 <0>        -0.7300
     12 C7         15.8431    4.3150   15.6802 C.2       1 <0>         0.5700
     13 O3         15.9496    4.2653   14.4701 O.2       1 <0>        -0.5300
     14 C8         14.8599    5.2263   16.2977 C.ar      1 <0>        -0.1600
     15 C9         14.3178    4.9317   17.5515 C.ar      1 <0>        -0.0500
     16 C10        13.4017    5.7809   18.1265 C.ar      1 <0>        -0.1500
     17 C11        13.0061    6.9445   17.4639 C.ar      1 <0>         0.1700
     18 N3         12.1100    7.9403   17.8385 N.am      1 <0>        -0.6600
     19 C12        12.0034    8.9073   16.9123 C.2       1 <0>         0.5300
     20 O4         11.2983    9.8919   16.9770 O.2       1 <0>        -0.4900
     21 C13        12.9286    8.5375   15.7723 C.3       1 <0>        -0.1200
     22 C14        13.5534    7.2334   16.2130 C.ar      1 <0>        -0.1500
     23 C15        14.4642    6.3914   15.6322 C.ar      1 <0>        -0.0000
     24 C16        16.9424    1.2750   15.5863 C.3       1 <0>        -0.1500
     25 C17        17.9551    0.3430   14.9136 C.3       1 <0>         0.1200
     26 H1         23.2546   -4.1762   14.5752 H         1 <0>         0.0600
     27 H2         22.1382   -3.5228   13.3524 H         1 <0>         0.0600
     28 H3         23.3845   -2.4743   14.0703 H         1 <0>         0.0600
     29 H4         22.2729   -2.6650   16.2787 H         1 <0>         0.0800
     30 H5         21.0265   -3.7136   15.5606 H         1 <0>         0.0800
     31 H6         20.3746   -1.8836   14.0197 H         1 <0>         0.1300
     32 H7         21.6209   -0.8350   14.7374 H         1 <0>         0.1300
     33 H8         20.2314    2.0204   15.2422 H         1 <0>         0.0800
     34 H9         20.6294    1.3271   16.8340 H         1 <0>         0.1000
     35 H10        19.2430    3.4249   16.9906 H         1 <0>         0.0900
     36 H11        18.4508    2.0084   17.7230 H         1 <0>         0.0700
     37 H12        17.9427    3.0559   14.9010 H         1 <0>         0.1000
     38 H13        16.5377    3.5775   17.4233 H         1 <0>         0.4000
     39 H14        14.6190    4.0338   18.0704 H         1 <0>         0.1300
     40 H15        12.9866    5.5469   19.0956 H         1 <0>         0.1400
     41 H16        11.6179    7.9368   18.6744 H         1 <0>         0.4200
     42 H17        12.3631    8.3984   14.8509 H         1 <0>         0.1300
     43 H18        13.6940    9.3019   15.6381 H         1 <0>         0.1300
     44 H19        14.8769    6.6281   14.6626 H         1 <0>         0.1400
     45 H20        16.6204    0.8405   16.5326 H         1 <0>         0.0700
     46 H21        16.0796    1.4063   14.9333 H         1 <0>         0.0800
     47 H22        18.2099    0.7307   13.9273 H         1 <0>         0.0800
     48 H23        17.5272   -0.6546   14.8148 H         1 <0>         0.1000
@<TRIPOS>BOND
     1    1    2 1
     2    1   26 1
     3    1   27 1
     4    1   28 1
     5    2    3 1
     6    2   29 1
     7    2   30 1
     8    3    4 1
     9    3   31 1
    10    3   32 1
    11    4    5 2
    12    4    6 2
    13    4    7 1
    14    7   25 1
    15    7    8 1
    16    8    9 1
    17    8   33 1
    18    8   34 1
    19    9   10 1
    20    9   35 1
    21    9   36 1
    22   10   11 1
    23   10   24 1
    24   10   37 1
    25   11   12 am
    26   11   38 1
    27   12   13 2
    28   12   14 1
    29   14   23 ar
    30   14   15 ar
    31   15   16 ar
    32   15   39 1
    33   16   17 ar
    34   16   40 1
    35   17   22 ar
    36   17   18 1
    37   18   19 am
    38   18   41 1
    39   19   20 2
    40   19   21 1
    41   21   22 1
    42   21   42 1
    43   21   43 1
    44   22   23 ar
    45   23   44 1
    46   24   25 1
    47   24   45 1
    48   24   46 1
    49   25   47 1
    50   25   48 1
##########                 Name:            smyd3_929
##########          Protonation:                 none
##########               SMILES:   CN(C)S(=O)(=O)N1CCC(NC(=O)C2=CC=C3NC(=O)CC3=C2)CC1
##########            Long Name:   NO_LONG_NAME
##########          FlexRecCode: 1
##########               Number:                 2502
##########   Ligand Source File: /proj/zinc22/users/x_andlu/OGG1/revisions/docking/targets/smyd3/db2gen/split_par
##########                 Rank:                    1
##########               Setnum:                   24
##########             Matchnum:                    8
##########                Cloud:                    1
##########        Electrostatic:           -20.798658
##########                 Gist:             0.000000
##########        Van der Waals:           -34.982414
##########  Ligand Polar Desolv:             8.119308
########## Ligand Apolar Desolv:            -0.648612
##########      Internal Energy:             0.000000
##########      Receptor Energy:             0.000000
########## Receptor Desolvation:             0.000000
########## Receptor Hydrophobic:             0.000000
##########         Total Energy:           -48.310379
##########        Ligand Charge:             0.000000
##########            Arbitrary:    +999.9990
##########        Ligand Energy:             0.000000

@<TRIPOS>MOLECULE
smyd3_929      none
   47    49     0     0     0
SMALL
USER_CHARGES

@<TRIPOS>ATOM
      1 C1         20.9538   -1.8052   14.7362 C.3       1 <0>         0.0900
      2 N1         20.2437   -2.0817   15.9873 N.pl3     1 <0>        -1.0200
      3 C2         20.9523   -2.7004   17.1105 C.3       1 <0>         0.0900
      4 S1         18.6399   -1.6952   16.1321 S.o2      1 <0>         2.7800
      5 O1         18.2888   -1.9404   17.4871 O.2       1 <0>        -0.9700
      6 O2         17.9784   -2.3092   15.0345 O.2       1 <0>        -0.9700
      7 N2         18.5070   -0.0605   15.9031 N.pl3     1 <0>        -1.0100
      8 C3         19.2077    0.8790   16.7892 C.3       1 <0>         0.1200
      9 C4         18.1916    1.8791   17.3497 C.3       1 <0>        -0.1400
     10 C5         17.4453    2.5452   16.1916 C.3       1 <0>         0.1500
     11 N3         16.4959    3.5265   16.7228 N.am      1 <0>        -0.7200
     12 C6         15.7232    4.2408   15.8808 C.2       1 <0>         0.5700
     13 O3         15.8140    4.0709   14.6803 O.2       1 <0>        -0.5300
     14 C7         14.7666    5.2292   16.4160 C.ar      1 <0>        -0.1600
     15 C8         14.2338    5.0703   17.6979 C.ar      1 <0>        -0.0500
     16 C9         13.3426    5.9914   18.1963 C.ar      1 <0>        -0.1500
     17 C10        12.9632    7.0931   17.4270 C.ar      1 <0>         0.1700
     18 N4         12.0926    8.1399   17.7114 N.am      1 <0>        -0.6600
     19 C11        11.9948    9.0141   16.6962 C.2       1 <0>         0.5300
     20 O4         11.3110   10.0154   16.6714 O.2       1 <0>        -0.4900
     21 C12        12.8982    8.5147   15.5887 C.3       1 <0>        -0.1200
     22 C13        13.5011    7.2464   16.1484 C.ar      1 <0>        -0.1500
     23 C14        14.3872    6.3321   15.6437 C.ar      1 <0>        -0.0000
     24 C15        16.6869    1.4824   15.3932 C.3       1 <0>        -0.1400
     25 C16        17.6859    0.4780   14.8101 C.3       1 <0>         0.1200
     26 H1         20.2685   -1.3476   14.0228 H         1 <0>         0.0600
     27 H2         21.7826   -1.1247   14.9316 H         1 <0>         0.0700
     28 H3         21.3389   -2.7377   14.3233 H         1 <0>         0.0700
     29 H4         20.2657   -2.8272   17.9476 H         1 <0>         0.0600
     30 H5         21.3373   -3.6735   16.8055 H         1 <0>         0.0800
     31 H6         21.7810   -2.0605   17.4140 H         1 <0>         0.0700
     32 H7         19.9725    1.4124   16.2248 H         1 <0>         0.0800
     33 H8         19.6734    0.3326   17.6095 H         1 <0>         0.1000
     34 H9         18.7126    2.6392   17.9319 H         1 <0>         0.0900
     35 H10        17.4799    1.3555   17.9881 H         1 <0>         0.0700
     36 H11        18.1602    3.0476   15.5400 H         1 <0>         0.1000
     37 H12        16.4235    3.6620   17.6805 H         1 <0>         0.4000
     38 H13        14.5226    4.2209   18.2992 H         1 <0>         0.1300
     39 H14        12.9345    5.8621   19.1878 H         1 <0>         0.1400
     40 H15        11.6107    8.2287   18.5486 H         1 <0>         0.4200
     41 H16        12.3188    8.2987   14.6910 H         1 <0>         0.1300
     42 H17        13.6776    9.2454   15.3726 H         1 <0>         0.1300
     43 H18        14.7930    6.4640   14.6515 H         1 <0>         0.1400
     44 H19        15.9896    0.9628   16.0500 H         1 <0>         0.0700
     45 H20        16.1368    1.9602   14.5826 H         1 <0>         0.0800
     46 H21        18.3266    0.9788   14.0844 H         1 <0>         0.0800
     47 H22        17.1476   -0.3349   14.3227 H         1 <0>         0.0900
@<TRIPOS>BOND
     1    1    2 1
     2    1   26 1
     3    1   27 1
     4    1   28 1
     5    2    3 1
     6    2    4 1
     7    3   29 1
     8    3   30 1
     9    3   31 1
    10    4    5 2
    11    4    6 2
    12    4    7 1
    13    7   25 1
    14    7    8 1
    15    8    9 1
    16    8   32 1
    17    8   33 1
    18    9   10 1
    19    9   34 1
    20    9   35 1
    21   10   11 1
    22   10   24 1
    23   10   36 1
    24   11   12 am
    25   11   37 1
    26   12   13 2
    27   12   14 1
    28   14   23 ar
    29   14   15 ar
    30   15   16 ar
    31   15   38 1
    32   16   17 ar
    33   16   39 1
    34   17   22 ar
    35   17   18 1
    36   18   19 am
    37   18   40 1
    38   19   20 2
    39   19   21 1
    40   21   22 1
    41   21   41 1
    42   21   42 1
    43   22   23 ar
    44   23   43 1
    45   24   25 1
    46   24   44 1
    47   24   45 1
    48   25   46 1
    49   25   47 1
##########                 Name:            smyd3_937
##########          Protonation:                 none
##########               SMILES:   O=C1CC2=CC(C(=O)NC3CC[NH+](CC4=CC=CS4)CC3)=CC=C2N1
##########            Long Name:   NO_LONG_NAME
##########          FlexRecCode: 1
##########               Number:                 2520
##########   Ligand Source File: /proj/zinc22/users/x_andlu/OGG1/revisions/docking/targets/smyd3/db2gen/split_par
##########                 Rank:                    1
##########               Setnum:                   51
##########             Matchnum:                    5
##########                Cloud:                    1
##########        Electrostatic:           -26.410486
##########                 Gist:             0.000000
##########        Van der Waals:           -35.225628
##########  Ligand Polar Desolv:             8.536888
########## Ligand Apolar Desolv:            -2.908908
##########      Internal Energy:             0.000000
##########      Receptor Energy:             0.000000
########## Receptor Desolvation:             0.000000
########## Receptor Hydrophobic:             0.000000
##########         Total Energy:           -56.008137
##########        Ligand Charge:             1.000000
##########            Arbitrary:    +999.9990
##########        Ligand Energy:             0.000000

@<TRIPOS>MOLECULE
smyd3_937      none
   47    50     0     0     0
SMALL
USER_CHARGES

@<TRIPOS>ATOM
      1 O1         11.5941    9.9394   17.1388 O.2       1 <0>        -0.4800
      2 C1         12.2643    8.9356   17.0204 C.2       1 <0>         0.5300
      3 C2         13.3262    8.6822   15.9715 C.3       1 <0>        -0.1200
      4 C3         13.8336    7.2939   16.2885 C.ar      1 <0>        -0.1500
      5 C4         14.7850    6.4938   15.7137 C.ar      1 <0>         0.0000
      6 C5         15.0392    5.2234   16.2415 C.ar      1 <0>        -0.1700
      7 C6         16.0641    4.3556   15.6292 C.2       1 <0>         0.5700
      8 O2         16.3378    4.4763   14.4507 O.2       1 <0>        -0.5300
      9 N1         16.6965    3.4293   16.3764 N.am      1 <0>        -0.7300
     10 C7         17.7138    2.5678   15.7688 C.3       1 <0>         0.1400
     11 C8         17.0517    1.2980   15.2260 C.3       1 <0>        -0.1600
     12 C9         18.1290    0.3677   14.6644 C.3       1 <0>        -0.0100
     13 N2         19.0759    0.0114   15.7280 N.4       1 <0>        -0.3900
     14 H1         18.5742   -0.4121   16.4942 H         1 <0>         0.4200
     15 C10        20.0623   -0.9426   15.2038 C.3       1 <0>         0.0800
     16 C11        20.7100   -1.6763   16.3499 C.2       1 <0>        -0.2900
     17 C12        21.6552   -2.6098   16.2293 C.2       1 <0>        -0.0700
     18 C13        22.1014   -3.1457   17.4250 C.2       1 <0>        -0.1500
     19 C14        21.5185   -2.6476   18.5166 C.2       1 <0>        -0.1700
     20 S1         20.3404   -1.4273   18.0512 S.3       1 <0>         0.1500
     21 C15        19.7669    1.2158   16.2036 C.3       1 <0>        -0.0000
     22 C16        18.7526    2.1787   16.8245 C.3       1 <0>        -0.1600
     23 C17        14.3154    4.7819   17.3522 C.ar      1 <0>        -0.0500
     24 C18        13.3599    5.5903   17.9219 C.ar      1 <0>        -0.1500
     25 C19        13.1053    6.8588   17.3966 C.ar      1 <0>         0.1900
     26 N3         12.2033    7.8397   17.7949 N.am      1 <0>        -0.6600
     27 H2         12.8913    8.7113   14.9725 H         1 <0>         0.1300
     28 H3         14.1309    9.4123   16.0583 H         1 <0>         0.1300
     29 H4         15.3387    6.8444   14.8552 H         1 <0>         0.1500
     30 H5         16.4783    3.3330   17.3167 H         1 <0>         0.4100
     31 H6         18.2040    3.1013   14.9544 H         1 <0>         0.1100
     32 H7         16.5184    0.7929   16.0315 H         1 <0>         0.0900
     33 H8         16.3507    1.5628   14.4345 H         1 <0>         0.1200
     34 H9         18.6615    0.8735   13.8591 H         1 <0>         0.1300
     35 H10        17.6606   -0.5373   14.2774 H         1 <0>         0.1400
     36 H11        19.5640   -1.6581   14.5497 H         1 <0>         0.1400
     37 H12        20.8244   -0.4044   14.6400 H         1 <0>         0.1400
     38 H13        22.0427   -2.9238   15.2714 H         1 <0>         0.1500
     39 H14        22.8639   -3.9092   17.4707 H         1 <0>         0.1600
     40 H15        21.7398   -2.9447   19.5310 H         1 <0>         0.1800
     41 H16        20.2644    1.7036   15.3654 H         1 <0>         0.1400
     42 H17        20.5077    0.9365   16.9527 H         1 <0>         0.1400
     43 H18        19.2675    3.0731   17.1755 H         1 <0>         0.1200
     44 H19        18.2546    1.6927   17.6634 H         1 <0>         0.1000
     45 H20        14.5068    3.8023   17.7644 H         1 <0>         0.1300
     46 H21        12.8040    5.2426   18.7800 H         1 <0>         0.1400
     47 H22        11.5986    7.7435   18.5473 H         1 <0>         0.4200
@<TRIPOS>BOND
     1    1    2 2
     2    2   26 am
     3    2    3 1
     4    3    4 1
     5    3   27 1
     6    3   28 1
     7    4   25 ar
     8    4    5 ar
     9    5    6 ar
    10    5   29 1
    11    6    7 1
    12    6   23 ar
    13    7    8 2
    14    7    9 am
    15    9   10 1
    16    9   30 1
    17   10   22 1
    18   10   11 1
    19   10   31 1
    20   11   12 1
    21   11   32 1
    22   11   33 1
    23   12   13 1
    24   12   34 1
    25   12   35 1
    26   13   14 1
    27   13   15 1
    28   13   21 1
    29   15   16 1
    30   15   36 1
    31   15   37 1
    32   16   20 1
    33   16   17 2
    34   17   18 1
    35   17   38 1
    36   18   19 2
    37   18   39 1
    38   19   20 1
    39   19   40 1
    40   21   22 1
    41   21   41 1
    42   21   42 1
    43   22   43 1
    44   22   44 1
    45   23   24 ar
    46   23   45 1
    47   24   25 ar
    48   24   46 1
    49   25   26 1
    50   26   47 1
##########                 Name:            smyd3_940
##########          Protonation:                 none
##########               SMILES:   CN(C(=O)C1=CC=C2NC(=O)CC2=C1)C1CCN(C2=CN=CS2)CC1
##########            Long Name:   NO_LONG_NAME
##########          FlexRecCode: 1
##########               Number:                 2529
##########   Ligand Source File: /proj/zinc22/users/x_andlu/OGG1/revisions/docking/targets/smyd3/db2gen/split_par
##########                 Rank:                    1
##########               Setnum:                   18
##########             Matchnum:                   13
##########                Cloud:                    1
##########        Electrostatic:           -13.003317
##########                 Gist:             0.000000
##########        Van der Waals:           -35.526073
##########  Ligand Polar Desolv:             6.440861
########## Ligand Apolar Desolv:            -1.664245
##########      Internal Energy:             0.000000
##########      Receptor Energy:             0.000000
########## Receptor Desolvation:             0.000000
########## Receptor Hydrophobic:             0.000000
##########         Total Energy:           -43.752773
##########        Ligand Charge:             0.000000
##########            Arbitrary:    +999.9990
##########        Ligand Energy:             0.000000

@<TRIPOS>MOLECULE
smyd3_940      none
   45    48     0     0     0
SMALL
USER_CHARGES

@<TRIPOS>ATOM
      1 C1         14.9250    2.8954   15.7354 C.3       1 <0>         0.0700
      2 N1         16.2228    3.4375   16.1455 N.am      1 <0>        -0.6100
      3 C2         16.3826    4.7681   16.2881 C.2       1 <0>         0.5700
      4 O1         17.4691    5.2750   16.0864 O.2       1 <0>        -0.5300
      5 C3         15.2385    5.6100   16.6891 C.ar      1 <0>        -0.1500
      6 C4         14.5916    5.3844   17.9070 C.ar      1 <0>        -0.0300
      7 C5         13.5263    6.1695   18.2808 C.ar      1 <0>        -0.1400
      8 C6         13.0819    7.1982   17.4476 C.ar      1 <0>         0.1700
      9 N2         12.0431    8.1090   17.6081 N.am      1 <0>        -0.6600
     10 C7         11.9362    8.9518   16.5675 C.2       1 <0>         0.5300
     11 O2         11.1230    9.8429   16.4429 O.2       1 <0>        -0.4900
     12 C8         13.0219    8.5809   15.5798 C.3       1 <0>        -0.1100
     13 C9         13.7337    7.4184   16.2335 C.ar      1 <0>        -0.1500
     14 C10        14.7943    6.6399   15.8530 C.ar      1 <0>        -0.0400
     15 C11        17.3468    2.5332   16.4005 C.3       1 <0>         0.1400
     16 C12        17.6582    1.7336   15.1322 C.3       1 <0>        -0.1300
     17 C13        18.7923    0.7479   15.4221 C.3       1 <0>         0.0600
     18 N3         18.3909   -0.1569   16.5067 N.pl3     1 <0>        -0.4400
     19 C14        19.3495   -1.1527   16.7083 C.2       1 <0>        -0.0000
     20 C15        19.2863   -2.1346   17.6214 C.2       1 <0>        -0.0100
     21 N4         20.3081   -2.9668   17.6324 N.2       1 <0>        -0.4500
     22 C16        21.2516   -2.7564   16.7766 C.2       1 <0>         0.0400
     23 S1         20.8498   -1.3444   15.8031 S.3       1 <0>         0.0400
     24 C17        18.1326    0.5838   17.7481 C.3       1 <0>         0.0500
     25 C18        16.9787    1.5645   17.5277 C.3       1 <0>        -0.1200
     26 H1         14.9880    1.8090   15.6742 H         1 <0>         0.0600
     27 H2         14.1669    3.1747   16.4672 H         1 <0>         0.0800
     28 H3         14.6544    3.2992   14.7598 H         1 <0>         0.0800
     29 H4         14.9295    4.5910   18.5570 H         1 <0>         0.1400
     30 H5         13.0311    5.9898   19.2236 H         1 <0>         0.1400
     31 H6         11.4611    8.1328   18.3838 H         1 <0>         0.4200
     32 H7         12.5854    8.2758   14.6287 H         1 <0>         0.1300
     33 H8         13.7075    9.4158   15.4340 H         1 <0>         0.1300
     34 H9         15.2875    6.8225   14.9097 H         1 <0>         0.1400
     35 H10        18.2227    3.1137   16.6904 H         1 <0>         0.1000
     36 H11        16.7695    1.1844   14.8210 H         1 <0>         0.0800
     37 H12        17.9623    2.4151   14.3378 H         1 <0>         0.0800
     38 H13        19.6847    1.2986   15.7200 H         1 <0>         0.0500
     39 H14        19.0067    0.1671   14.5250 H         1 <0>         0.0900
     40 H15        18.4538   -2.2356   18.3019 H         1 <0>         0.1700
     41 H16        22.1449   -3.3542   16.6715 H         1 <0>         0.2000
     42 H17        19.0281    1.1352   18.0351 H         1 <0>         0.0600
     43 H18        17.8678   -0.1164   18.5403 H         1 <0>         0.0900
     44 H19        16.7975    2.1253   18.4447 H         1 <0>         0.0800
     45 H20        16.0793    1.0127   17.2541 H         1 <0>         0.0800
@<TRIPOS>BOND
     1    1    2 1
     2    1   26 1
     3    1   27 1
     4    1   28 1
     5    2    3 am
     6    2   15 1
     7    3    4 2
     8    3    5 1
     9    5   14 ar
    10    5    6 ar
    11    6    7 ar
    12    6   29 1
    13    7    8 ar
    14    7   30 1
    15    8   13 ar
    16    8    9 1
    17    9   10 am
    18    9   31 1
    19   10   11 2
    20   10   12 1
    21   12   13 1
    22   12   32 1
    23   12   33 1
    24   13   14 ar
    25   14   34 1
    26   15   25 1
    27   15   16 1
    28   15   35 1
    29   16   17 1
    30   16   36 1
    31   16   37 1
    32   17   18 1
    33   17   38 1
    34   17   39 1
    35   18   19 1
    36   18   24 1
    37   19   23 1
    38   19   20 2
    39   20   21 1
    40   20   40 1
    41   21   22 2
    42   22   23 1
    43   22   41 1
    44   24   25 1
    45   24   42 1
    46   24   43 1
    47   25   44 1
    48   25   45 1
##########                 Name:            smyd3_942
##########          Protonation:                 none
##########               SMILES:   O=C1CC2=C(C=CC(C(=O)NC3CC[NH+](CC4=CSC=C4)CC3)=C2)N1
##########            Long Name:   NO_LONG_NAME
##########          FlexRecCode: 1
##########               Number:                 2538
##########   Ligand Source File: /proj/zinc22/users/x_andlu/OGG1/revisions/docking/targets/smyd3/db2gen/split_par
##########                 Rank:                    1
##########               Setnum:                   96
##########             Matchnum:                    3
##########                Cloud:                    1
##########        Electrostatic:           -25.798935
##########                 Gist:             0.000000
##########        Van der Waals:           -35.507179
##########  Ligand Polar Desolv:             7.689220
########## Ligand Apolar Desolv:            -2.814103
##########      Internal Energy:             0.000000
##########      Receptor Energy:             0.000000
########## Receptor Desolvation:             0.000000
########## Receptor Hydrophobic:             0.000000
##########         Total Energy:           -56.430996
##########        Ligand Charge:             1.000000
##########            Arbitrary:    +999.9990
##########        Ligand Energy:             0.000000

@<TRIPOS>MOLECULE
smyd3_942      none
   47    50     0     0     0
SMALL
USER_CHARGES

@<TRIPOS>ATOM
      1 O1         11.5870    9.9851   17.0046 O.2       1 <0>        -0.4800
      2 C1         12.2434    8.9693   16.9139 C.2       1 <0>         0.5300
      3 C2         13.3031    8.6735   15.8739 C.3       1 <0>        -0.1200
      4 C3         13.7906    7.2871   16.2283 C.ar      1 <0>        -0.1500
      5 C4         13.0550    6.8916   17.3459 C.ar      1 <0>         0.1900
      6 C5         13.2908    5.6334   17.9045 C.ar      1 <0>        -0.1500
      7 C6         14.2346    4.7968   17.3574 C.ar      1 <0>        -0.0500
      8 C7         14.9664    5.1991   16.2367 C.ar      1 <0>        -0.1700
      9 C8         15.9794    4.3009   15.6488 C.2       1 <0>         0.5700
     10 O2         16.2563    4.3871   14.4680 O.2       1 <0>        -0.5300
     11 N1         16.5975    3.3853   16.4209 N.am      1 <0>        -0.7300
     12 C9         17.6030    2.4939   15.8374 C.3       1 <0>         0.1400
     13 C10        16.9235    1.2200   15.3269 C.3       1 <0>        -0.1600
     14 C11        17.9881    0.2600   14.7914 C.3       1 <0>        -0.0100
     15 N2         18.9285   -0.0819   15.8654 N.4       1 <0>        -0.3800
     16 H1         18.4199   -0.4780   16.6414 H         1 <0>         0.4200
     17 C12        19.9020   -1.0631   15.3678 C.3       1 <0>         0.0600
     18 C13        20.5375   -1.7757   16.5337 C.2       1 <0>        -0.1700
     19 C14        20.2213   -1.5023   17.8004 C.2       1 <0>        -0.1900
     20 S1         21.1590   -2.5293   18.8773 S.3       1 <0>         0.1900
     21 C15        21.9576   -3.2885   17.5063 C.2       1 <0>        -0.2000
     22 C16        21.4977   -2.7594   16.3715 C.2       1 <0>        -0.1400
     23 C17        19.6361    1.1245   16.3107 C.3       1 <0>        -0.0000
     24 C18        18.6349    2.1177   16.9046 C.3       1 <0>        -0.1600
     25 C19        14.7316    6.4587   15.6760 C.ar      1 <0>         0.0000
     26 N3         12.1661    7.8951   17.7168 N.am      1 <0>        -0.6600
     27 H2         12.8700    8.6823   14.8737 H         1 <0>         0.1300
     28 H3         14.1179    9.3943   15.9427 H         1 <0>         0.1300
     29 H4         12.7286    5.3159   18.7703 H         1 <0>         0.1400
     30 H5         14.4108    3.8252   17.7949 H         1 <0>         0.1300
     31 H6         16.3766    3.3166   17.3630 H         1 <0>         0.4100
     32 H7         18.1019    2.9989   15.0103 H         1 <0>         0.1100
     33 H8         16.3821    0.7436   16.1442 H         1 <0>         0.0900
     34 H9         16.2274    1.4741   14.5276 H         1 <0>         0.1200
     35 H10        18.5288    0.7373   13.9739 H         1 <0>         0.1300
     36 H11        17.5073   -0.6478   14.4272 H         1 <0>         0.1400
     37 H12        19.3943   -1.7882   14.7317 H         1 <0>         0.1400
     38 H13        20.6722   -0.5506   14.7915 H         1 <0>         0.1400
     39 H14        19.4986   -0.7645   18.1165 H         1 <0>         0.1800
     40 H15        22.7063   -4.0640   17.5732 H         1 <0>         0.1800
     41 H16        21.8477   -3.0750   15.3998 H         1 <0>         0.1500
     42 H17        20.1415    1.5833   15.4609 H         1 <0>         0.1300
     43 H18        20.3719    0.8543   17.0680 H         1 <0>         0.1400
     44 H19        19.1620    3.0135   17.2330 H         1 <0>         0.1200
     45 H20        18.1289    1.6608   17.7551 H         1 <0>         0.0900
     46 H21        15.2918    6.7790   14.8100 H         1 <0>         0.1500
     47 H22        11.5591    7.8269   18.4704 H         1 <0>         0.4200
@<TRIPOS>BOND
     1    1    2 2
     2    2   26 am
     3    2    3 1
     4    3    4 1
     5    3   27 1
     6    3   28 1
     7    4   25 ar
     8    4    5 ar
     9    5    6 ar
    10    5   26 1
    11    6    7 ar
    12    6   29 1
    13    7    8 ar
    14    7   30 1
    15    8    9 1
    16    8   25 ar
    17    9   10 2
    18    9   11 am
    19   11   12 1
    20   11   31 1
    21   12   24 1
    22   12   13 1
    23   12   32 1
    24   13   14 1
    25   13   33 1
    26   13   34 1
    27   14   15 1
    28   14   35 1
    29   14   36 1
    30   15   16 1
    31   15   17 1
    32   15   23 1
    33   17   18 1
    34   17   37 1
    35   17   38 1
    36   18   22 1
    37   18   19 2
    38   19   20 1
    39   19   39 1
    40   20   21 1
    41   21   22 2
    42   21   40 1
    43   22   41 1
    44   23   24 1
    45   23   42 1
    46   23   43 1
    47   24   44 1
    48   24   45 1
    49   25   46 1
    50   26   47 1
##########                 Name:            smyd3_943
##########          Protonation:                 none
##########               SMILES:   O=C1CC2=C(C=CC(C(=O)NC3CC[NH+](CC4=CSC=N4)CC3)=C2)N1
##########            Long Name:   NO_LONG_NAME
##########          FlexRecCode: 1
##########               Number:                 2541
##########   Ligand Source File: /proj/zinc22/users/x_andlu/OGG1/revisions/docking/targets/smyd3/db2gen/split_par
##########                 Rank:                    1
##########               Setnum:                   68
##########             Matchnum:                   17
##########                Cloud:                    1
##########        Electrostatic:           -27.284914
##########                 Gist:             0.000000
##########        Van der Waals:           -33.459377
##########  Ligand Polar Desolv:             9.094956
########## Ligand Apolar Desolv:            -2.154505
##########      Internal Energy:             0.000000
##########      Receptor Energy:             0.000000
########## Receptor Desolvation:             0.000000
########## Receptor Hydrophobic:             0.000000
##########         Total Energy:           -53.803844
##########        Ligand Charge:             1.000000
##########            Arbitrary:    +999.9990
##########        Ligand Energy:             0.000000

@<TRIPOS>MOLECULE
smyd3_943      none
   46    49     0     0     0
SMALL
USER_CHARGES

@<TRIPOS>ATOM
      1 O1         11.2111    9.6502   16.8958 O.2       1 <0>        -0.4800
      2 C1         11.9863    8.7188   16.8468 C.2       1 <0>         0.5300
      3 C2         12.9514    8.4104   15.7218 C.3       1 <0>        -0.1200
      4 C3         13.6626    7.1572   16.1793 C.ar      1 <0>        -0.1500
      5 C4         13.1207    6.8367   17.4243 C.ar      1 <0>         0.1900
      6 C5         13.5900    5.7080   18.0999 C.ar      1 <0>        -0.1500
      7 C6         14.5720    4.9238   17.5424 C.ar      1 <0>        -0.0500
      8 C7         15.1090    5.2501   16.2940 C.ar      1 <0>        -0.1700
      9 C8         16.1629    4.4082   15.6950 C.2       1 <0>         0.5700
     10 O2         16.2892    4.3600   14.4867 O.2       1 <0>        -0.5300
     11 N1         16.9855    3.6927   16.4876 N.am      1 <0>        -0.7300
     12 C9         18.0316    2.8570   15.8930 C.3       1 <0>         0.1400
     13 C10        17.4810    1.4507   15.6391 C.3       1 <0>        -0.1600
     14 C11        18.6002    0.5618   15.0926 C.3       1 <0>        -0.0100
     15 N2         19.6948    0.4915   16.0681 N.4       1 <0>        -0.3800
     16 H1         19.3373    0.1499   16.9476 H         1 <0>         0.4300
     17 C12        20.7315   -0.4242   15.5736 C.3       1 <0>         0.0800
     18 C13        20.1395   -1.7968   15.3820 C.2       1 <0>        -0.0000
     19 C14        20.8516   -2.8351   14.9339 C.2       1 <0>        -0.2400
     20 S1         19.7835   -4.2346   14.8622 S.3       1 <0>         0.2200
     21 C15        18.4835   -3.2824   15.4339 C.2       1 <0>         0.0300
     22 N3         18.8759   -2.0702   15.6372 N.2       1 <0>        -0.4700
     23 C16        20.2748    1.8258   16.2628 C.3       1 <0>        -0.0000
     24 C17        19.2202    2.7634   16.8542 C.3       1 <0>        -0.1600
     25 C18        14.6401    6.3801   15.6161 C.ar      1 <0>         0.0000
     26 N4         12.1498    7.7670   17.7806 N.am      1 <0>        -0.6600
     27 H2         12.4101    8.2255   14.7939 H         1 <0>         0.1300
     28 H3         13.6614    9.2273   15.5927 H         1 <0>         0.1300
     29 H4         13.1793    5.4497   19.0647 H         1 <0>         0.1400
     30 H5         14.9295    4.0524   18.0709 H         1 <0>         0.1300
     31 H6         16.8847    3.7311   17.4515 H         1 <0>         0.4100
     32 H7         18.3585    3.2972   14.9510 H         1 <0>         0.1100
     33 H8         17.1071    1.0320   16.5735 H         1 <0>         0.0900
     34 H9         16.6701    1.5029   14.9126 H         1 <0>         0.1200
     35 H10        18.9732    0.9811   14.1582 H         1 <0>         0.1300
     36 H11        18.2112   -0.4402   14.9110 H         1 <0>         0.1300
     37 H12        21.1155   -0.0580   14.6215 H         1 <0>         0.1400
     38 H13        21.5448   -0.4771   16.2973 H         1 <0>         0.1500
     39 H14        21.8975   -2.8196   14.6652 H         1 <0>         0.1900
     40 H15        17.4795   -3.6434   15.6007 H         1 <0>         0.2100
     41 H16        20.6123    2.2182   15.3034 H         1 <0>         0.1400
     42 H17        21.1223    1.7566   16.9446 H         1 <0>         0.1400
     43 H18        19.6522    3.7539   16.9963 H         1 <0>         0.1200
     44 H19        18.8821    2.3727   17.8141 H         1 <0>         0.1000
     45 H20        15.0482    6.6407   14.6508 H         1 <0>         0.1500
     46 H21        11.6478    7.7324   18.6099 H         1 <0>         0.4200
@<TRIPOS>BOND
     1    1    2 2
     2    2   26 am
     3    2    3 1
     4    3    4 1
     5    3   27 1
     6    3   28 1
     7    4   25 ar
     8    4    5 ar
     9    5    6 ar
    10    5   26 1
    11    6    7 ar
    12    6   29 1
    13    7    8 ar
    14    7   30 1
    15    8    9 1
    16    8   25 ar
    17    9   10 2
    18    9   11 am
    19   11   12 1
    20   11   31 1
    21   12   24 1
    22   12   13 1
    23   12   32 1
    24   13   14 1
    25   13   33 1
    26   13   34 1
    27   14   15 1
    28   14   35 1
    29   14   36 1
    30   15   16 1
    31   15   17 1
    32   15   23 1
    33   17   18 1
    34   17   37 1
    35   17   38 1
    36   18   22 1
    37   18   19 2
    38   19   20 1
    39   19   39 1
    40   20   21 1
    41   21   22 2
    42   21   40 1
    43   23   24 1
    44   23   41 1
    45   23   42 1
    46   24   43 1
    47   24   44 1
    48   25   45 1
    49   26   46 1
##########                 Name:            smyd3_947
##########          Protonation:                 none
##########               SMILES:   O=C1CC2=CC(C(=O)NC3CCN(C4=CC=C(Br)C=C4)CC3)=CC=C2N1
##########            Long Name:   NO_LONG_NAME
##########          FlexRecCode: 1
##########               Number:                 2555
##########   Ligand Source File: /proj/zinc22/users/x_andlu/OGG1/revisions/docking/targets/smyd3/db2gen/split_par
##########                 Rank:                    1
##########               Setnum:                   12
##########             Matchnum:                    2
##########                Cloud:                    1
##########        Electrostatic:           -15.572876
##########                 Gist:             0.000000
##########        Van der Waals:           -37.087357
##########  Ligand Polar Desolv:             6.077151
########## Ligand Apolar Desolv:            -2.618912
##########      Internal Energy:             0.000000
##########      Receptor Energy:             0.000000
########## Receptor Desolvation:             0.000000
########## Receptor Hydrophobic:             0.000000
##########         Total Energy:           -49.201992
##########        Ligand Charge:             0.000000
##########            Arbitrary:    +999.9990
##########        Ligand Energy:             0.000000

@<TRIPOS>MOLECULE
smyd3_947      none
   46    49     0     0     0
SMALL
USER_CHARGES

@<TRIPOS>ATOM
      1 O1         11.2725   10.0338   16.4752 O.2       1 <0>        -0.4900
      2 C1         11.9468    9.0283   16.5461 C.2       1 <0>         0.5300
      3 C2         12.9068    8.5136   15.4947 C.3       1 <0>        -0.1200
      4 C3         13.4690    7.2463   16.0974 C.ar      1 <0>        -0.1500
      5 C4         14.3754    6.3220   15.6501 C.ar      1 <0>        -0.0000
      6 C5         14.7036    5.2233   16.4513 C.ar      1 <0>        -0.1600
      7 C6         15.6816    4.2242   15.9782 C.2       1 <0>         0.5700
      8 O2         15.8376    4.0434   14.7860 O.2       1 <0>        -0.5300
      9 N1         16.4014    3.5121   16.8676 N.am      1 <0>        -0.7200
     10 C7         17.3720    2.5202   16.3981 C.3       1 <0>         0.1400
     11 C8         16.6522    1.4523   15.5699 C.3       1 <0>        -0.1300
     12 C9         17.6602    0.3859   15.1349 C.3       1 <0>         0.0600
     13 N2         18.2775   -0.2207   16.3212 N.pl3     1 <0>        -0.4900
     14 C10        19.1059   -1.2877   15.9642 C.ar      1 <0>         0.1300
     15 C11        18.5788   -2.3833   15.2922 C.ar      1 <0>        -0.1700
     16 C12        19.4011   -3.4341   14.9359 C.ar      1 <0>        -0.0600
     17 C13        20.7465   -3.4012   15.2568 C.ar      1 <0>        -0.1200
     18 Br1        21.8676   -4.8453   14.7735 Br        1 <0>        -0.0500
     19 C14        21.2732   -2.3138   15.9311 C.ar      1 <0>        -0.0600
     20 C15        20.4569   -1.2578   16.2854 C.ar      1 <0>        -0.1400
     21 C16        19.0145    0.7781   17.1057 C.3       1 <0>         0.0500
     22 C17        18.0468    1.8552   17.6010 C.3       1 <0>        -0.1300
     23 C18        14.0994    5.0788   17.7029 C.ar      1 <0>        -0.0500
     24 C19        13.1883    6.0098   18.1435 C.ar      1 <0>        -0.1500
     25 C20        12.8598    7.1074   17.3453 C.ar      1 <0>         0.1700
     26 N3         11.9821    8.1622   17.5724 N.am      1 <0>        -0.6600
     27 H1         12.3767    8.2937   14.5680 H         1 <0>         0.1300
     28 H2         13.7021    9.2374   15.3162 H         1 <0>         0.1300
     29 H3         14.8365    6.4428   14.6810 H         1 <0>         0.1400
     30 H4         16.2769    3.6562   17.8187 H         1 <0>         0.4000
     31 H5         18.1260    3.0113   15.7829 H         1 <0>         0.0900
     32 H6         15.8714    0.9890   16.1732 H         1 <0>         0.0800
     33 H7         16.2064    1.9139   14.6890 H         1 <0>         0.0800
     34 H8         18.4325    0.8472   14.5193 H         1 <0>         0.0500
     35 H9         17.1479   -0.3842   14.5581 H         1 <0>         0.0900
     36 H10        17.5278   -2.4115   15.0454 H         1 <0>         0.1400
     37 H11        18.9926   -4.2843   14.4098 H         1 <0>         0.1300
     38 H12        22.3237   -2.2912   16.1809 H         1 <0>         0.1300
     39 H13        20.8685   -0.4094   16.8121 H         1 <0>         0.1300
     40 H14        19.7806    1.2376   16.4810 H         1 <0>         0.0500
     41 H15        19.4861    0.2928   17.9603 H         1 <0>         0.0900
     42 H16        18.5967    2.6047   18.1700 H         1 <0>         0.0800
     43 H17        17.2884    1.3991   18.2374 H         1 <0>         0.0800
     44 H18        14.3485    4.2328   18.3262 H         1 <0>         0.1300
     45 H19        12.7249    5.8917   19.1118 H         1 <0>         0.1400
     46 H20        11.4551    8.2613   18.3807 H         1 <0>         0.4200
@<TRIPOS>BOND
     1    1    2 2
     2    2   26 am
     3    2    3 1
     4    3    4 1
     5    3   27 1
     6    3   28 1
     7    4   25 ar
     8    4    5 ar
     9    5    6 ar
    10    5   29 1
    11    6    7 1
    12    6   23 ar
    13    7    8 2
    14    7    9 am
    15    9   10 1
    16    9   30 1
    17   10   22 1
    18   10   11 1
    19   10   31 1
    20   11   12 1
    21   11   32 1
    22   11   33 1
    23   12   13 1
    24   12   34 1
    25   12   35 1
    26   13   14 1
    27   13   21 1
    28   14   20 ar
    29   14   15 ar
    30   15   16 ar
    31   15   36 1
    32   16   17 ar
    33   16   37 1
    34   17   18 1
    35   17   19 ar
    36   19   20 ar
    37   19   38 1
    38   20   39 1
    39   21   22 1
    40   21   40 1
    41   21   41 1
    42   22   42 1
    43   22   43 1
    44   23   24 ar
    45   23   44 1
    46   24   25 ar
    47   24   45 1
    48   25   26 1
    49   26   46 1
##########                 Name:            smyd3_948
##########          Protonation:                 none
##########               SMILES:   CN(C(=O)C1=CC2=C(C=C1Cl)NC(=O)C2)C1CCN(C(=O)C2CC2)CC1
##########            Long Name:   NO_LONG_NAME
##########          FlexRecCode: 1
##########               Number:                 2558
##########   Ligand Source File: /proj/zinc22/users/x_andlu/OGG1/revisions/docking/targets/smyd3/db2gen/split_par
##########                 Rank:                    1
##########               Setnum:                   63
##########             Matchnum:                    1
##########                Cloud:                    1
##########        Electrostatic:           -11.121585
##########                 Gist:             0.000000
##########        Van der Waals:           -30.424469
##########  Ligand Polar Desolv:             8.370680
########## Ligand Apolar Desolv:            -2.675778
##########      Internal Energy:             0.000000
##########      Receptor Energy:             0.000000
########## Receptor Desolvation:             0.000000
########## Receptor Hydrophobic:             0.000000
##########         Total Energy:           -35.851154
##########        Ligand Charge:             0.000000
##########            Arbitrary:    +999.9990
##########        Ligand Energy:             0.000000

@<TRIPOS>MOLECULE
smyd3_948      none
   48    51     0     0     0
SMALL
USER_CHARGES

@<TRIPOS>ATOM
      1 C1         15.1854    3.1719   15.1955 C.3       1 <0>         0.0700
      2 N1         16.4012    3.6509   15.8577 N.am      1 <0>        -0.6100
      3 C2         16.4975    4.9399   16.2394 C.2       1 <0>         0.5700
      4 O1         17.5837    5.4854   16.2702 O.2       1 <0>        -0.5100
      5 C3         15.2841    5.6907   16.6141 C.ar      1 <0>        -0.1500
      6 C4         14.9155    6.8359   15.9005 C.ar      1 <0>        -0.0200
      7 C5         13.7850    7.5270   16.2565 C.ar      1 <0>        -0.1500
      8 C6         12.9930    7.1067   17.3219 C.ar      1 <0>         0.1800
      9 C7         13.3607    5.9635   18.0338 C.ar      1 <0>        -0.1400
     10 C8         14.4901    5.2595   17.6824 C.ar      1 <0>         0.0400
     11 Cl1        14.9338    3.8355   18.5708 Cl        1 <0>        -0.0300
     12 N2         11.9114    7.9660   17.4846 N.am      1 <0>        -0.6600
     13 C9         11.9109    8.9639   16.5852 C.2       1 <0>         0.5300
     14 O2         11.0904    9.8524   16.4958 O.2       1 <0>        -0.4900
     15 C10        13.1272    8.7715   15.7046 C.3       1 <0>        -0.1100
     16 C11        17.5124    2.7287   16.1050 C.3       1 <0>         0.1400
     17 C12        18.0151    2.1672   14.7730 C.3       1 <0>        -0.1400
     18 C13        19.1989    1.2303   15.0327 C.3       1 <0>         0.1100
     19 N3         18.7879    0.2063   16.0027 N.am      1 <0>        -0.6100
     20 C14        18.9408   -1.1036   15.7247 C.2       1 <0>         0.5500
     21 O3         18.8870   -1.4900   14.5763 O.2       1 <0>        -0.5400
     22 C15        19.1783   -2.0881   16.8406 C.3       1 <0>        -0.2000
     23 C16        20.3651   -1.8286   17.7709 C.3       1 <0>        -0.1500
     24 C17        20.4262   -2.9691   16.7518 C.3       1 <0>        -0.1500
     25 C18        18.2063    0.6372   17.2813 C.3       1 <0>         0.1100
     26 C19        17.0335    1.5806   16.9965 C.3       1 <0>        -0.1400
     27 H1         15.2916    2.1122   14.9633 H         1 <0>         0.0600
     28 H2         14.3309    3.3151   15.8569 H         1 <0>         0.0800
     29 H3         15.0291    3.7319   14.2735 H         1 <0>         0.0800
     30 H4         15.5189    7.1749   15.0714 H         1 <0>         0.1500
     31 H5         12.7542    5.6279   18.8619 H         1 <0>         0.1500
     32 H6         11.2336    7.8567   18.1699 H         1 <0>         0.4200
     33 H7         13.7979    9.6268   15.7870 H         1 <0>         0.1300
     34 H8         12.8280    8.6177   14.6679 H         1 <0>         0.1300
     35 H9         18.3225    3.2617   16.6030 H         1 <0>         0.1100
     36 H10        17.2127    1.6130   14.2859 H         1 <0>         0.0700
     37 H11        18.3341    2.9871   14.1298 H         1 <0>         0.0800
     38 H12        20.0351    1.8014   15.4363 H         1 <0>         0.0800
     39 H13        19.4973    0.7514   14.1000 H         1 <0>         0.0900
     40 H14        18.2823   -2.5275   17.2787 H         1 <0>         0.1300
     41 H15        20.9739   -0.9458   17.5756 H         1 <0>         0.1000
     42 H16        20.2497   -2.0975   18.8207 H         1 <0>         0.1100
     43 H17        20.3509   -3.9880   17.1316 H         1 <0>         0.1000
     44 H18        21.0751   -2.8367   15.8861 H         1 <0>         0.1100
     45 H19        18.9615    1.1599   17.8684 H         1 <0>         0.0700
     46 H20        17.8498   -0.2329   17.8324 H         1 <0>         0.1000
     47 H21        16.6540    1.9833   17.9356 H         1 <0>         0.0800
     48 H22        16.2400    1.0325   16.4887 H         1 <0>         0.0700
@<TRIPOS>BOND
     1    1    2 1
     2    1   27 1
     3    1   28 1
     4    1   29 1
     5    2    3 am
     6    2   16 1
     7    3    4 2
     8    3    5 1
     9    5   10 ar
    10    5    6 ar
    11    6    7 ar
    12    6   30 1
    13    7   15 1
    14    7    8 ar
    15    8    9 ar
    16    8   12 1
    17    9   10 ar
    18    9   31 1
    19   10   11 1
    20   12   13 am
    21   12   32 1
    22   13   14 2
    23   13   15 1
    24   15   33 1
    25   15   34 1
    26   16   26 1
    27   16   17 1
    28   16   35 1
    29   17   18 1
    30   17   36 1
    31   17   37 1
    32   18   19 1
    33   18   38 1
    34   18   39 1
    35   19   20 am
    36   19   25 1
    37   20   21 2
    38   20   22 1
    39   22   24 1
    40   22   23 1
    41   22   40 1
    42   23   24 1
    43   23   41 1
    44   23   42 1
    45   24   43 1
    46   24   44 1
    47   25   26 1
    48   25   45 1
    49   25   46 1
    50   26   47 1
    51   26   48 1
##########                 Name:            smyd3_949
##########          Protonation:                 none
##########               SMILES:   CN(C(=O)C1=CC2=C(C=C1Cl)NC(=O)C2)C1CCN(C2=CN=CS2)CC1
##########            Long Name:   NO_LONG_NAME
##########          FlexRecCode: 1
##########               Number:                 2561
##########   Ligand Source File: /proj/zinc22/users/x_andlu/OGG1/revisions/docking/targets/smyd3/db2gen/split_par
##########                 Rank:                    1
##########               Setnum:                   36
##########             Matchnum:                   12
##########                Cloud:                    1
##########        Electrostatic:           -13.521195
##########                 Gist:             0.000000
##########        Van der Waals:           -32.748421
##########  Ligand Polar Desolv:             7.029621
########## Ligand Apolar Desolv:            -2.019966
##########      Internal Energy:             0.000000
##########      Receptor Energy:             0.000000
########## Receptor Desolvation:             0.000000
########## Receptor Hydrophobic:             0.000000
##########         Total Energy:           -41.259960
##########        Ligand Charge:             0.000000
##########            Arbitrary:    +999.9990
##########        Ligand Energy:             0.000000

@<TRIPOS>MOLECULE
smyd3_949      none
   45    48     0     0     0
SMALL
USER_CHARGES

@<TRIPOS>ATOM
      1 C1         15.1031    3.1842   15.0616 C.3       1 <0>         0.0500
      2 N1         16.3328    3.6239   15.7256 N.am      1 <0>        -0.6100
      3 C2         16.4536    4.8994   16.1440 C.2       1 <0>         0.5600
      4 O1         17.5488    5.4263   16.1800 O.2       1 <0>        -0.5100
      5 C3         15.2570    5.6561   16.5585 C.ar      1 <0>        -0.1500
      6 C4         14.8987    6.8305   15.8884 C.ar      1 <0>        -0.0400
      7 C5         13.7840    7.5272   16.2814 C.ar      1 <0>        -0.1500
      8 C6         12.9979    7.0838   17.3418 C.ar      1 <0>         0.1900
      9 C7         13.3557    5.9117   18.0105 C.ar      1 <0>        -0.1400
     10 C8         14.4686    5.2015   17.6211 C.ar      1 <0>         0.0500
     11 Cl1        14.8993    3.7415   18.4556 Cl        1 <0>        -0.0200
     12 N2         11.9323    7.9540   17.5465 N.am      1 <0>        -0.6600
     13 C9         11.9373    8.9815   16.6812 C.2       1 <0>         0.5300
     14 O2         11.1298    9.8849   16.6312 O.2       1 <0>        -0.4900
     15 C10        13.1399    8.7997   15.7796 C.3       1 <0>        -0.1100
     16 C11        17.4311    2.6773   15.9347 C.3       1 <0>         0.1400
     17 C12        16.9412    1.5059   16.7906 C.3       1 <0>        -0.1200
     18 C13        18.0748    0.4911   16.9547 C.3       1 <0>         0.0500
     19 N3         18.4990    0.0114   15.6331 N.pl3     1 <0>        -0.4400
     20 C14        19.4415   -1.0129   15.7512 C.2       1 <0>        -0.0000
     21 C15        20.6936   -0.9917   15.2681 C.2       1 <0>        -0.0100
     22 N4         21.4098   -2.0737   15.4983 N.2       1 <0>        -0.4500
     23 C16        20.8427   -3.0297   16.1554 C.2       1 <0>         0.0400
     24 S1         19.1943   -2.5590   16.5606 S.3       1 <0>         0.0400
     25 C17        19.0177    1.1114   14.8101 C.3       1 <0>         0.0600
     26 C18        17.9122    2.1448   14.5821 C.3       1 <0>        -0.1300
     27 H1         15.1898    2.1302   14.7974 H         1 <0>         0.0700
     28 H2         14.2573    3.3214   15.7354 H         1 <0>         0.0900
     29 H3         14.9473    3.7735   14.1581 H         1 <0>         0.0800
     30 H4         15.4976    7.1876   15.0636 H         1 <0>         0.1600
     31 H5         12.7538    5.5582   18.8347 H         1 <0>         0.1500
     32 H6         11.2610    7.8325   18.2361 H         1 <0>         0.4200
     33 H7         13.8252    9.6411   15.8823 H         1 <0>         0.1300
     34 H8         12.8259    8.6856   14.7421 H         1 <0>         0.1300
     35 H9         18.2547    3.1797   16.4421 H         1 <0>         0.1100
     36 H10        16.0927    1.0277   16.3012 H         1 <0>         0.0800
     37 H11        16.6366    1.8729   17.7706 H         1 <0>         0.0800
     38 H12        17.7248   -0.3511   17.5515 H         1 <0>         0.0900
     39 H13        18.9178    0.9662   17.4562 H         1 <0>         0.0600
     40 H14        21.0879   -0.1443   14.7269 H         1 <0>         0.1700
     41 H15        21.3060   -3.9700   16.4154 H         1 <0>         0.2000
     42 H16        19.8563    1.5836   15.3219 H         1 <0>         0.0500
     43 H17        19.3525    0.7197   13.8496 H         1 <0>         0.0900
     44 H18        17.0789    1.6766   14.0582 H         1 <0>         0.0800
     45 H19        18.3019    2.9687   13.9844 H         1 <0>         0.0800
@<TRIPOS>BOND
     1    1    2 1
     2    1   27 1
     3    1   28 1
     4    1   29 1
     5    2    3 am
     6    2   16 1
     7    3    4 2
     8    3    5 1
     9    5   10 ar
    10    5    6 ar
    11    6    7 ar
    12    6   30 1
    13    7   15 1
    14    7    8 ar
    15    8    9 ar
    16    8   12 1
    17    9   10 ar
    18    9   31 1
    19   10   11 1
    20   12   13 am
    21   12   32 1
    22   13   14 2
    23   13   15 1
    24   15   33 1
    25   15   34 1
    26   16   26 1
    27   16   17 1
    28   16   35 1
    29   17   18 1
    30   17   36 1
    31   17   37 1
    32   18   19 1
    33   18   38 1
    34   18   39 1
    35   19   20 1
    36   19   25 1
    37   20   24 1
    38   20   21 2
    39   21   22 1
    40   21   40 1
    41   22   23 2
    42   23   24 1
    43   23   41 1
    44   25   26 1
    45   25   42 1
    46   25   43 1
    47   26   44 1
    48   26   45 1
##########                 Name:            smyd3_952
##########          Protonation:                 none
##########               SMILES:   CC1CN(C(=O)C2CC2)CCC1NC(=O)C1=CC2=C(C=C1Cl)NC(=O)C2
##########            Long Name:   NO_LONG_NAME
##########          FlexRecCode: 1
##########               Number:                 2568
##########   Ligand Source File: /proj/zinc22/users/x_andlu/OGG1/revisions/docking/targets/smyd3/db2gen/split_par
##########                 Rank:                    1
##########               Setnum:                   25
##########             Matchnum:                    1
##########                Cloud:                    1
##########        Electrostatic:           -17.547890
##########                 Gist:             0.000000
##########        Van der Waals:           -32.354061
##########  Ligand Polar Desolv:             6.697444
########## Ligand Apolar Desolv:            -2.517576
##########      Internal Energy:             0.000000
##########      Receptor Energy:             0.000000
########## Receptor Desolvation:             0.000000
########## Receptor Hydrophobic:             0.000000
##########         Total Energy:           -45.722080
##########        Ligand Charge:             0.000000
##########            Arbitrary:    +999.9990
##########        Ligand Energy:             0.000000

@<TRIPOS>MOLECULE
smyd3_952      none
   48    51     0     0     0
SMALL
USER_CHARGES

@<TRIPOS>ATOM
      1 C1         16.3219    1.7484   14.6384 C.3       1 <0>        -0.1500
      2 C2         17.5806    1.7346   15.5082 C.3       1 <0>        -0.1100
      3 C3         18.6671    0.9005   14.8223 C.3       1 <0>         0.1200
      4 N1         19.9069    1.0041   15.6036 N.am      1 <0>        -0.6100
      5 C4         20.5502   -0.1042   16.0212 C.2       1 <0>         0.5500
      6 O1         21.5729   -0.0053   16.6656 O.2       1 <0>        -0.5400
      7 C5         19.9987   -1.4663   15.6875 C.3       1 <0>        -0.2000
      8 C6         20.9863   -2.6333   15.6278 C.3       1 <0>        -0.1500
      9 C7         20.3842   -2.0731   14.3368 C.3       1 <0>        -0.1500
     10 C8         20.4324    2.3390   15.9211 C.3       1 <0>         0.1100
     11 C9         19.3262    3.1570   16.5948 C.3       1 <0>        -0.1500
     12 C10        18.0862    3.1666   15.6979 C.3       1 <0>         0.1500
     13 N2         17.0373    3.9756   16.3238 N.am      1 <0>        -0.7200
     14 C11        16.1444    4.6317   15.5567 C.2       1 <0>         0.5600
     15 O2         16.2091    4.5522   14.3451 O.2       1 <0>        -0.5100
     16 C12        15.0881    5.4461   16.1870 C.ar      1 <0>        -0.1500
     17 C13        15.0056    6.8178   15.9255 C.ar      1 <0>        -0.0200
     18 C14        14.0160    7.5656   16.5121 C.ar      1 <0>        -0.1500
     19 C15        13.0936    6.9825   17.3769 C.ar      1 <0>         0.1900
     20 C16        13.1795    5.6147   17.6424 C.ar      1 <0>        -0.1400
     21 C17        14.1649    4.8537   17.0554 C.ar      1 <0>         0.0500
     22 Cl1        14.2620    3.1535   17.3930 Cl        1 <0>        -0.0100
     23 N3         12.1999    7.9410   17.8434 N.am      1 <0>        -0.6600
     24 C18        12.4546    9.1628   17.3463 C.2       1 <0>         0.5300
     25 O3         11.8372   10.1795   17.5827 O.2       1 <0>        -0.4900
     26 C19        13.6572    9.0323   16.4359 C.3       1 <0>        -0.1100
     27 H1         15.9623    0.7284   14.5036 H         1 <0>         0.0600
     28 H2         15.5502    2.3444   15.1256 H         1 <0>         0.0600
     29 H3         16.5567    2.1824   13.6665 H         1 <0>         0.0600
     30 H4         17.3466    1.2996   16.4799 H         1 <0>         0.0800
     31 H5         18.3515   -0.1418   14.7739 H         1 <0>         0.1000
     32 H6         18.8356    1.2783   13.8138 H         1 <0>         0.0700
     33 H7         18.9972   -1.6733   16.0648 H         1 <0>         0.1300
     34 H8         22.0352   -2.4157   15.8300 H         1 <0>         0.1000
     35 H9         20.6347   -3.6081   15.9656 H         1 <0>         0.1100
     36 H10        19.6365   -2.6797   13.8258 H         1 <0>         0.1000
     37 H11        21.0364   -1.4870   13.6895 H         1 <0>         0.1100
     38 H12        21.2818    2.2459   16.5979 H         1 <0>         0.0900
     39 H13        20.7466    2.8357   15.0032 H         1 <0>         0.0800
     40 H14        19.6719    4.1793   16.7485 H         1 <0>         0.0900
     41 H15        19.0763    2.7085   17.5563 H         1 <0>         0.0700
     42 H16        18.3428    3.5925   14.7280 H         1 <0>         0.1000
     43 H17        16.9858    4.0390   17.2904 H         1 <0>         0.4000
     44 H18        15.7159    7.2860   15.2603 H         1 <0>         0.1400
     45 H19        12.4694    5.1514   18.3113 H         1 <0>         0.1500
     46 H20        11.4748    7.7490   18.4585 H         1 <0>         0.4200
     47 H21        13.3951    9.3091   15.4147 H         1 <0>         0.1300
     48 H22        14.4797    9.6487   16.7987 H         1 <0>         0.1300
@<TRIPOS>BOND
     1    1    2 1
     2    1   27 1
     3    1   28 1
     4    1   29 1
     5    2   12 1
     6    2    3 1
     7    2   30 1
     8    3    4 1
     9    3   31 1
    10    3   32 1
    11    4    5 am
    12    4   10 1
    13    5    6 2
    14    5    7 1
    15    7    9 1
    16    7    8 1
    17    7   33 1
    18    8    9 1
    19    8   34 1
    20    8   35 1
    21    9   36 1
    22    9   37 1
    23   10   11 1
    24   10   38 1
    25   10   39 1
    26   11   12 1
    27   11   40 1
    28   11   41 1
    29   12   13 1
    30   12   42 1
    31   13   14 am
    32   13   43 1
    33   14   15 2
    34   14   16 1
    35   16   21 ar
    36   16   17 ar
    37   17   18 ar
    38   17   44 1
    39   18   26 1
    40   18   19 ar
    41   19   20 ar
    42   19   23 1
    43   20   21 ar
    44   20   45 1
    45   21   22 1
    46   23   24 am
    47   23   46 1
    48   24   25 2
    49   24   26 1
    50   26   47 1
    51   26   48 1
##########                 Name:            smyd3_953
##########          Protonation:                 none
##########               SMILES:   CCC(=O)N1CCC(NC(=O)C2=CC3=C(C=C2Cl)NC(=O)C3)C(CC)C1
##########            Long Name:   NO_LONG_NAME
##########          FlexRecCode: 1
##########               Number:                 2572
##########   Ligand Source File: /proj/zinc22/users/x_andlu/OGG1/revisions/docking/targets/smyd3/db2gen/split_par
##########                 Rank:                    1
##########               Setnum:                   32
##########             Matchnum:                    1
##########                Cloud:                    1
##########        Electrostatic:           -17.041660
##########                 Gist:             0.000000
##########        Van der Waals:           -33.201309
##########  Ligand Polar Desolv:             6.677474
########## Ligand Apolar Desolv:            -1.928400
##########      Internal Energy:             0.000000
##########      Receptor Energy:             0.000000
########## Receptor Desolvation:             0.000000
########## Receptor Hydrophobic:             0.000000
##########         Total Energy:           -45.493896
##########        Ligand Charge:             0.000000
##########            Arbitrary:    +999.9990
##########        Ligand Energy:             0.000000

@<TRIPOS>MOLECULE
smyd3_953      none
   50    52     0     0     0
SMALL
USER_CHARGES

@<TRIPOS>ATOM
      1 C1         24.7794    3.4645   15.0541 C.3       1 <0>        -0.1400
      2 C2         23.3192    3.6805   14.6514 C.3       1 <0>        -0.1400
      3 C3         22.4375    2.7460   15.4390 C.2       1 <0>         0.5100
      4 O1         22.9285    1.9824   16.2430 O.2       1 <0>        -0.5400
      5 N1         21.1031    2.7588   15.2497 N.am      1 <0>        -0.6200
      6 C4         20.4936    3.6779   14.2788 C.3       1 <0>         0.1100
      7 C5         19.3992    4.4853   14.9840 C.3       1 <0>        -0.1500
      8 C6         18.4096    3.5249   15.6475 C.3       1 <0>         0.1500
      9 N2         17.3434    4.2932   16.2948 N.am      1 <0>        -0.7200
     10 C7         16.2284    4.6103   15.6072 C.2       1 <0>         0.5600
     11 O2         16.1075    4.2588   14.4495 O.2       1 <0>        -0.5100
     12 C8         15.1548    5.3841   16.2591 C.ar      1 <0>        -0.1600
     13 C9         14.7717    6.6279   15.7465 C.ar      1 <0>        -0.0200
     14 C10        13.7681    7.3374   16.3565 C.ar      1 <0>        -0.1500
     15 C11        13.1277    6.8436   17.4900 C.ar      1 <0>         0.1900
     16 C12        13.5140    5.6048   18.0049 C.ar      1 <0>        -0.1400
     17 C13        14.5159    4.8820   17.3980 C.ar      1 <0>         0.0500
     18 Cl1        14.9878    3.3427   18.0473 Cl        1 <0>        -0.0100
     19 N3         12.1573    7.7413   17.9229 N.am      1 <0>        -0.6600
     20 C14        12.0904    8.8358   17.1469 C.2       1 <0>         0.5300
     21 O3         11.3386    9.7763   17.2916 O.2       1 <0>        -0.4900
     22 C15        13.1299    8.6749   16.0580 C.3       1 <0>        -0.1100
     23 C16        19.1389    2.6792   16.6984 C.3       1 <0>        -0.1100
     24 C17        18.1449    1.7402   17.3846 C.3       1 <0>        -0.1200
     25 C18        17.5115    0.8174   16.3413 C.3       1 <0>        -0.1600
     26 C19        20.2304    1.8537   16.0098 C.3       1 <0>         0.1200
     27 H1         25.4172    4.1404   14.4846 H         1 <0>         0.0600
     28 H2         24.8962    3.6656   16.1190 H         1 <0>         0.0600
     29 H3         25.0650    2.4334   14.8456 H         1 <0>         0.0600
     30 H4         23.2024    3.4793   13.5866 H         1 <0>         0.0900
     31 H5         23.0335    4.7116   14.8599 H         1 <0>         0.0900
     32 H6         21.2538    4.3550   13.8895 H         1 <0>         0.0900
     33 H7         20.0582    3.1069   13.4586 H         1 <0>         0.0800
     34 H8         19.8505    5.1243   15.7430 H         1 <0>         0.0700
     35 H9         18.8744    5.1017   14.2541 H         1 <0>         0.0900
     36 H10        17.9772    2.8696   14.8913 H         1 <0>         0.1000
     37 H11        17.4397    4.5734   17.2184 H         1 <0>         0.4000
     38 H12        15.2615    7.0268   14.8704 H         1 <0>         0.1400
     39 H13        13.0242    5.2115   18.8834 H         1 <0>         0.1500
     40 H14        11.5926    7.5937   18.6977 H         1 <0>         0.4200
     41 H15        12.6563    8.6619   15.0764 H         1 <0>         0.1300
     42 H16        13.8688    9.4743   16.1141 H         1 <0>         0.1300
     43 H17        19.5929    3.3351   17.4412 H         1 <0>         0.0800
     44 H18        18.6667    1.1409   18.1307 H         1 <0>         0.0700
     45 H19        17.3660    2.3278   17.8706 H         1 <0>         0.0700
     46 H20        16.8032    0.1483   16.8302 H         1 <0>         0.0600
     47 H21        16.9895    1.4167   15.5954 H         1 <0>         0.0600
     48 H22        18.2902    0.2298   15.8553 H         1 <0>         0.0600
     49 H23        19.7714    1.1339   15.3322 H         1 <0>         0.0700
     50 H24        20.8175    1.3254   16.7610 H         1 <0>         0.1000
@<TRIPOS>BOND
     1    1    2 1
     2    1   27 1
     3    1   28 1
     4    1   29 1
     5    2    3 1
     6    2   30 1
     7    2   31 1
     8    3    4 2
     9    3    5 am
    10    5   26 1
    11    5    6 1
    12    6    7 1
    13    6   32 1
    14    6   33 1
    15    7    8 1
    16    7   34 1
    17    7   35 1
    18    8    9 1
    19    8   23 1
    20    8   36 1
    21    9   10 am
    22    9   37 1
    23   10   11 2
    24   10   12 1
    25   12   17 ar
    26   12   13 ar
    27   13   14 ar
    28   13   38 1
    29   14   22 1
    30   14   15 ar
    31   15   16 ar
    32   15   19 1
    33   16   17 ar
    34   16   39 1
    35   17   18 1
    36   19   20 am
    37   19   40 1
    38   20   21 2
    39   20   22 1
    40   22   41 1
    41   22   42 1
    42   23   24 1
    43   23   26 1
    44   23   43 1
    45   24   25 1
    46   24   44 1
    47   24   45 1
    48   25   46 1
    49   25   47 1
    50   25   48 1
    51   26   49 1
    52   26   50 1
##########                 Name:            smyd3_954
##########          Protonation:                 none
##########               SMILES:   CCC1CN(S(C)(=O)=O)CCC1NC(=O)C1=CC2=C(C=C1Cl)NC(=O)C2
##########            Long Name:   NO_LONG_NAME
##########          FlexRecCode: 1
##########               Number:                 2574
##########   Ligand Source File: /proj/zinc22/users/x_andlu/OGG1/revisions/docking/targets/smyd3/db2gen/split_par
##########                 Rank:                    1
##########               Setnum:                    2
##########             Matchnum:                    2
##########                Cloud:                    1
##########        Electrostatic:           -12.106741
##########                 Gist:             0.000000
##########        Van der Waals:           -37.493855
##########  Ligand Polar Desolv:             7.891640
########## Ligand Apolar Desolv:            -1.331480
##########      Internal Energy:             0.000000
##########      Receptor Energy:             0.000000
########## Receptor Desolvation:             0.000000
########## Receptor Hydrophobic:             0.000000
##########         Total Energy:           -43.040436
##########        Ligand Charge:             0.000000
##########            Arbitrary:    +999.9990
##########        Ligand Energy:             0.000000

@<TRIPOS>MOLECULE
smyd3_954      none
   48    50     0     0     0
SMALL
USER_CHARGES

@<TRIPOS>ATOM
      1 C1         20.7665    4.2785   16.1183 C.3       1 <0>        -0.1600
      2 C2         19.3131    4.1109   15.6708 C.3       1 <0>        -0.1200
      3 C3         18.8201    2.7136   16.0520 C.3       1 <0>        -0.1100
      4 C4         19.6885    1.6586   15.3596 C.3       1 <0>         0.1300
      5 N1         19.1240    0.3294   15.6303 N.pl3     1 <0>        -1.0000
      6 S1         20.0657   -0.8728   16.2708 S.o2      1 <0>         2.6100
      7 C5         20.7642   -1.7188   14.8261 C.3       1 <0>        -0.6700
      8 O1         21.0819   -0.1803   16.9826 O.2       1 <0>        -0.9500
      9 O2         19.1440   -1.7177   16.9461 O.2       1 <0>        -0.9500
     10 C6         17.7081    0.0870   15.3217 C.3       1 <0>         0.1200
     11 C7         16.8620    1.1596   16.0148 C.3       1 <0>        -0.1500
     12 C8         17.3663    2.5452   15.6047 C.3       1 <0>         0.1500
     13 N2         16.5381    3.5735   16.2395 N.am      1 <0>        -0.7200
     14 C9         15.4384    4.0353   15.6120 C.2       1 <0>         0.5600
     15 O3         15.1335    3.5985   14.5189 O.2       1 <0>        -0.5100
     16 C10        14.6044    5.0708   16.2513 C.ar      1 <0>        -0.1500
     17 C11        14.4130    6.3070   15.6255 C.ar      1 <0>        -0.0200
     18 C12        13.6309    7.2615   16.2255 C.ar      1 <0>        -0.1500
     19 C13        13.0296    7.0244   17.4588 C.ar      1 <0>         0.1900
     20 C14        13.2255    5.7926   18.0860 C.ar      1 <0>        -0.1400
     21 C15        14.0037    4.8258   17.4909 C.ar      1 <0>         0.0500
     22 Cl1        14.2401    3.2979   18.2803 Cl        1 <0>        -0.0100
     23 N3         12.2972    8.1375   17.8581 N.am      1 <0>        -0.6600
     24 C16        12.3589    9.1380   16.9637 C.2       1 <0>         0.5300
     25 O4         11.8180   10.2197   17.0548 O.2       1 <0>        -0.4900
     26 C17        13.2303    8.6620   15.8210 C.3       1 <0>        -0.1100
     27 H1         21.1177    5.2741   15.8468 H         1 <0>         0.0600
     28 H2         20.8309    4.1528   17.1991 H         1 <0>         0.0500
     29 H3         21.3865    3.5282   15.6277 H         1 <0>         0.0600
     30 H4         19.2488    4.2366   14.5901 H         1 <0>         0.0700
     31 H5         18.6931    4.8612   16.1615 H         1 <0>         0.0700
     32 H6         18.8853    2.5869   17.1326 H         1 <0>         0.0800
     33 H7         19.6967    1.8400   14.2848 H         1 <0>         0.0800
     34 H8         20.7061    1.7115   15.7468 H         1 <0>         0.1000
     35 H9         21.4056   -2.5352   15.1580 H         1 <0>         0.1300
     36 H10        19.9561   -2.1178   14.2129 H         1 <0>         0.1300
     37 H11        21.3505   -1.0117   14.2393 H         1 <0>         0.1300
     38 H12        17.5547    0.1404   14.2438 H         1 <0>         0.0800
     39 H13        17.4189   -0.8997   15.6835 H         1 <0>         0.1000
     40 H14        16.9459    1.0472   17.0957 H         1 <0>         0.0700
     41 H15        15.8193    1.0491   15.7169 H         1 <0>         0.0900
     42 H16        17.3054    2.6478   14.5212 H         1 <0>         0.1000
     43 H17        16.7835    3.9250   17.1097 H         1 <0>         0.4000
     44 H18        14.8759    6.5080   14.6706 H         1 <0>         0.1400
     45 H19        12.7638    5.5973   19.0426 H         1 <0>         0.1500
     46 H20        11.7984    8.1859   18.6885 H         1 <0>         0.4200
     47 H21        12.6635    8.6436   14.8901 H         1 <0>         0.1300
     48 H22        14.1091    9.2988   15.7196 H         1 <0>         0.1300
@<TRIPOS>BOND
     1    1    2 1
     2    1   27 1
     3    1   28 1
     4    1   29 1
     5    2    3 1
     6    2   30 1
     7    2   31 1
     8    3   12 1
     9    3    4 1
    10    3   32 1
    11    4    5 1
    12    4   33 1
    13    4   34 1
    14    5    6 1
    15    5   10 1
    16    6    7 1
    17    6    8 2
    18    6    9 2
    19    7   35 1
    20    7   36 1
    21    7   37 1
    22   10   11 1
    23   10   38 1
    24   10   39 1
    25   11   12 1
    26   11   40 1
    27   11   41 1
    28   12   13 1
    29   12   42 1
    30   13   14 am
    31   13   43 1
    32   14   15 2
    33   14   16 1
    34   16   21 ar
    35   16   17 ar
    36   17   18 ar
    37   17   44 1
    38   18   26 1
    39   18   19 ar
    40   19   20 ar
    41   19   23 1
    42   20   21 ar
    43   20   45 1
    44   21   22 1
    45   23   24 am
    46   23   46 1
    47   24   25 2
    48   24   26 1
    49   26   47 1
    50   26   48 1
##########                 Name:            smyd3_955
##########          Protonation:                 none
##########               SMILES:   CS(=O)(=O)N1C2CCC1CC(NC(=O)C1=CC3=C(C=C1Cl)NC(=O)C3)C2
##########            Long Name:   NO_LONG_NAME
##########          FlexRecCode: 1
##########               Number:                 2576
##########   Ligand Source File: /proj/zinc22/users/x_andlu/OGG1/revisions/docking/targets/smyd3/db2gen/split_par
##########                 Rank:                    1
##########               Setnum:                   24
##########             Matchnum:                    3
##########                Cloud:                    1
##########        Electrostatic:           -13.204305
##########                 Gist:             0.000000
##########        Van der Waals:           -36.601948
##########  Ligand Polar Desolv:             7.926220
########## Ligand Apolar Desolv:            -0.996081
##########      Internal Energy:             0.000000
##########      Receptor Energy:             0.000000
########## Receptor Desolvation:             0.000000
########## Receptor Hydrophobic:             0.000000
##########         Total Energy:           -42.876114
##########        Ligand Charge:             0.000000
##########            Arbitrary:    +999.9990
##########        Ligand Energy:             0.000000

@<TRIPOS>MOLECULE
smyd3_955      none
   46    49     0     0     0
SMALL
USER_CHARGES

@<TRIPOS>ATOM
      1 C1         17.0418   -1.2345   18.0361 C.3       1 <0>        -0.6700
      2 S1         18.7381   -1.1670   17.3969 S.o2      1 <0>         2.6300
      3 O1         18.9679   -2.2279   16.4797 O.2       1 <0>        -0.9500
      4 O2         19.6562   -0.8945   18.4467 O.2       1 <0>        -0.9500
      5 N1         18.7724    0.1978   16.4597 N.pl3     1 <0>        -1.0100
      6 C2         19.6315    1.3964   16.6157 C.3       1 <0>         0.1600
      7 C3         20.0599    1.7485   15.1725 C.3       1 <0>        -0.1300
      8 C4         18.9473    1.1621   14.2783 C.3       1 <0>        -0.1400
      9 C5         17.9512    0.5111   15.2653 C.3       1 <0>         0.1600
     10 C6         16.9225    1.5795   15.6689 C.3       1 <0>        -0.1400
     11 C7         17.6847    2.8596   16.0682 C.3       1 <0>         0.1500
     12 N2         16.7378    3.8413   16.6030 N.am      1 <0>        -0.7200
     13 C8         15.7189    4.2808   15.8381 C.2       1 <0>         0.5600
     14 O3         15.5856    3.8627   14.7041 O.2       1 <0>        -0.5100
     15 C9         14.7654    5.2693   16.3766 C.ar      1 <0>        -0.1500
     16 C10        14.6071    6.5097   15.7498 C.ar      1 <0>        -0.0200
     17 C11        13.7178    7.4224   16.2583 C.ar      1 <0>        -0.1500
     18 C12        12.9652    7.1346   17.3939 C.ar      1 <0>         0.1900
     19 C13        13.1232    5.8966   18.0194 C.ar      1 <0>        -0.1400
     20 C14        14.0082    4.9710   17.5147 C.ar      1 <0>         0.0500
     21 Cl1        14.1909    3.4320   18.2968 Cl        1 <0>        -0.0100
     22 N3         12.1424    8.2106   17.7104 N.am      1 <0>        -0.6600
     23 C15        12.2848    9.2334   16.8512 C.2       1 <0>         0.5300
     24 O4         11.6941   10.2920   16.8874 O.2       1 <0>        -0.4900
     25 C16        13.3208    8.8165   15.8289 C.3       1 <0>        -0.1100
     26 C17        18.7373    2.5349   17.1322 C.3       1 <0>        -0.1400
     27 H1         16.8847   -0.4144   18.7369 H         1 <0>         0.1300
     28 H2         16.3379   -1.1452   17.2087 H         1 <0>         0.1300
     29 H3         16.8835   -2.1843   18.5469 H         1 <0>         0.1300
     30 H4         20.4867    1.2085   17.2648 H         1 <0>         0.1100
     31 H5         21.0186    1.2862   14.9377 H         1 <0>         0.0700
     32 H6         20.1178    2.8295   15.0468 H         1 <0>         0.0800
     33 H7         18.4579    1.9548   13.7124 H         1 <0>         0.0900
     34 H8         19.3586    0.4113   13.6036 H         1 <0>         0.0700
     35 H9         17.4774   -0.3768   14.8464 H         1 <0>         0.1000
     36 H10        16.2553    1.7792   14.8304 H         1 <0>         0.0800
     37 H11        16.3436    1.2251   16.5218 H         1 <0>         0.0700
     38 H12        18.1755    3.2721   15.1867 H         1 <0>         0.1000
     39 H13        16.8442    4.1748   17.5076 H         1 <0>         0.4000
     40 H14        15.1832    6.7482   14.8679 H         1 <0>         0.1400
     41 H15        12.5452    5.6623   18.9011 H         1 <0>         0.1500
     42 H16        11.5342    8.2211   18.4659 H         1 <0>         0.4200
     43 H17        14.1805    9.4859   15.8612 H         1 <0>         0.1300
     44 H18        12.8861    8.7993   14.8295 H         1 <0>         0.1300
     45 H19        18.2425    2.2220   18.0517 H         1 <0>         0.0800
     46 H20        19.3459    3.4182   17.3254 H         1 <0>         0.0800
@<TRIPOS>BOND
     1    1    2 1
     2    1   27 1
     3    1   28 1
     4    1   29 1
     5    2    3 2
     6    2    4 2
     7    2    5 1
     8    5    9 1
     9    5    6 1
    10    6   26 1
    11    6    7 1
    12    6   30 1
    13    7    8 1
    14    7   31 1
    15    7   32 1
    16    8    9 1
    17    8   33 1
    18    8   34 1
    19    9   10 1
    20    9   35 1
    21   10   11 1
    22   10   36 1
    23   10   37 1
    24   11   12 1
    25   11   26 1
    26   11   38 1
    27   12   13 am
    28   12   39 1
    29   13   14 2
    30   13   15 1
    31   15   20 ar
    32   15   16 ar
    33   16   17 ar
    34   16   40 1
    35   17   25 1
    36   17   18 ar
    37   18   19 ar
    38   18   22 1
    39   19   20 ar
    40   19   41 1
    41   20   21 1
    42   22   23 am
    43   22   42 1
    44   23   24 2
    45   23   25 1
    46   25   43 1
    47   25   44 1
    48   26   45 1
    49   26   46 1
##########                 Name:            smyd3_958
##########          Protonation:                 none
##########               SMILES:   O=C1CC2=CC(C(=O)NC3CCN(C(=O)C4CCC4)CC3)=C(Cl)C=C2N1
##########            Long Name:   NO_LONG_NAME
##########          FlexRecCode: 1
##########               Number:                 2583
##########   Ligand Source File: /proj/zinc22/users/x_andlu/OGG1/revisions/docking/targets/smyd3/db2gen/split_par
##########                 Rank:                    1
##########               Setnum:                   50
##########             Matchnum:                   17
##########                Cloud:                    1
##########        Electrostatic:           -17.649136
##########                 Gist:             0.000000
##########        Van der Waals:           -34.834660
##########  Ligand Polar Desolv:             7.102456
########## Ligand Apolar Desolv:            -2.348156
##########      Internal Energy:             0.000000
##########      Receptor Energy:             0.000000
########## Receptor Desolvation:             0.000000
########## Receptor Hydrophobic:             0.000000
##########         Total Energy:           -47.729496
##########        Ligand Charge:             0.000000
##########            Arbitrary:    +999.9990
##########        Ligand Energy:             0.000000

@<TRIPOS>MOLECULE
smyd3_958      none
   48    51     0     0     0
SMALL
USER_CHARGES

@<TRIPOS>ATOM
      1 O1         11.4533    9.7939   16.9969 O.2       1 <0>        -0.4900
      2 C1         12.1741    8.8227   16.9088 C.2       1 <0>         0.5300
      3 C2         13.2282    8.5785   15.8499 C.3       1 <0>        -0.1100
      4 C3         13.8126    7.2339   16.2188 C.ar      1 <0>        -0.1500
      5 C4         14.7985    6.4624   15.6584 C.ar      1 <0>        -0.0200
      6 C5         15.1318    5.2322   16.2357 C.ar      1 <0>        -0.1600
      7 C6         16.1906    4.3946   15.6412 C.2       1 <0>         0.5600
      8 O2         16.0832    4.0011   14.4957 O.2       1 <0>        -0.5100
      9 N1         17.2771    4.0656   16.3677 N.am      1 <0>        -0.7200
     10 C7         18.3286    3.2338   15.7773 C.3       1 <0>         0.1500
     11 C8         19.4402    3.0112   16.8054 C.3       1 <0>        -0.1400
     12 C9         20.5538    2.1702   16.1736 C.3       1 <0>         0.1100
     13 N2         19.9675    0.9325   15.6413 N.am      1 <0>        -0.6100
     14 C10        20.4619   -0.2698   15.9969 C.2       1 <0>         0.5300
     15 O3         20.9708   -0.4176   17.0878 O.2       1 <0>        -0.5400
     16 C11        20.3822   -1.4305   15.0390 C.3       1 <0>        -0.1400
     17 C12        19.2453   -2.4156   15.3582 C.3       1 <0>        -0.1200
     18 C13        20.2267   -3.5431   14.9966 C.3       1 <0>        -0.1400
     19 C14        21.3582   -2.5716   15.3713 C.3       1 <0>        -0.1200
     20 C15        18.8360    1.0307   14.7092 C.3       1 <0>         0.1100
     21 C16        17.7381    1.8844   15.3618 C.3       1 <0>        -0.1500
     22 C17        14.4493    4.8000   17.3776 C.ar      1 <0>         0.0500
     23 Cl1        14.8493    3.2723   18.0986 Cl        1 <0>        -0.0100
     24 C18        13.4653    5.5854   17.9350 C.ar      1 <0>        -0.1400
     25 C19        13.1329    6.8125   17.3591 C.ar      1 <0>         0.1900
     26 N3         12.1869    7.7614   17.7324 N.am      1 <0>        -0.6600
     27 H1         13.9951    9.3521   15.8886 H         1 <0>         0.1300
     28 H2         12.7735    8.5390   14.8601 H         1 <0>         0.1300
     29 H3         15.3158    6.8033   14.7738 H         1 <0>         0.1400
     30 H4         17.3628    4.3797   17.2814 H         1 <0>         0.4000
     31 H5         18.7395    3.7357   14.9013 H         1 <0>         0.0900
     32 H6         19.0353    2.4873   17.6714 H         1 <0>         0.0700
     33 H7         19.8443    3.9739   17.1184 H         1 <0>         0.0800
     34 H8         21.3002    1.9253   16.9292 H         1 <0>         0.1000
     35 H9         21.0229    2.7298   15.3644 H         1 <0>         0.0700
     36 H10        20.4116   -1.1212   13.9942 H         1 <0>         0.1100
     37 H11        18.3976   -2.3395   14.6772 H         1 <0>         0.0700
     38 H12        18.9484   -2.4149   16.4070 H         1 <0>         0.0900
     39 H13        20.1586   -4.4090   15.6550 H         1 <0>         0.0700
     40 H14        20.2134   -3.8113   13.9401 H         1 <0>         0.0800
     41 H15        21.6389   -2.6134   16.4238 H         1 <0>         0.0900
     42 H16        22.2169   -2.6223   14.7018 H         1 <0>         0.0800
     43 H17        19.1657    1.5005   13.7825 H         1 <0>         0.0800
     44 H18        18.4488    0.0338   14.4983 H         1 <0>         0.0900
     45 H19        17.3493    1.3711   16.2412 H         1 <0>         0.0700
     46 H20        16.9309    2.0451   14.6472 H         1 <0>         0.0800
     47 H21        12.9454    5.2484   18.8195 H         1 <0>         0.1500
     48 H22        11.6023    7.6676   18.5009 H         1 <0>         0.4200
@<TRIPOS>BOND
     1    1    2 2
     2    2   26 am
     3    2    3 1
     4    3    4 1
     5    3   27 1
     6    3   28 1
     7    4   25 ar
     8    4    5 ar
     9    5    6 ar
    10    5   29 1
    11    6    7 1
    12    6   22 ar
    13    7    8 2
    14    7    9 am
    15    9   10 1
    16    9   30 1
    17   10   21 1
    18   10   11 1
    19   10   31 1
    20   11   12 1
    21   11   32 1
    22   11   33 1
    23   12   13 1
    24   12   34 1
    25   12   35 1
    26   13   14 am
    27   13   20 1
    28   14   15 2
    29   14   16 1
    30   16   19 1
    31   16   17 1
    32   16   36 1
    33   17   18 1
    34   17   37 1
    35   17   38 1
    36   18   19 1
    37   18   39 1
    38   18   40 1
    39   19   41 1
    40   19   42 1
    41   20   21 1
    42   20   43 1
    43   20   44 1
    44   21   45 1
    45   21   46 1
    46   22   23 1
    47   22   24 ar
    48   24   25 ar
    49   24   47 1
    50   25   26 1
    51   26   48 1
##########                 Name:            smyd3_959
##########          Protonation:                 none
##########               SMILES:   CC(C)CC(=O)N1CCC(NC(=O)C2=CC3=C(C=C2Cl)NC(=O)C3)CC1
##########            Long Name:   NO_LONG_NAME
##########          FlexRecCode: 1
##########               Number:                 2585
##########   Ligand Source File: /proj/zinc22/users/x_andlu/OGG1/revisions/docking/targets/smyd3/db2gen/split_par
##########                 Rank:                    1
##########               Setnum:                    2
##########             Matchnum:                    2
##########                Cloud:                    1
##########        Electrostatic:           -19.362732
##########                 Gist:             0.000000
##########        Van der Waals:           -32.715336
##########  Ligand Polar Desolv:             6.597409
########## Ligand Apolar Desolv:            -2.190158
##########      Internal Energy:             0.000000
##########      Receptor Energy:             0.000000
########## Receptor Desolvation:             0.000000
########## Receptor Hydrophobic:             0.000000
##########         Total Energy:           -47.670818
##########        Ligand Charge:             0.000000
##########            Arbitrary:    +999.9990
##########        Ligand Energy:             0.000000

@<TRIPOS>MOLECULE
smyd3_959      none
   50    52     0     0     0
SMALL
USER_CHARGES

@<TRIPOS>ATOM
      1 C1         23.0030   -1.2925   14.7309 C.3       1 <0>        -0.1500
      2 C2         21.8114   -2.1365   15.1877 C.3       1 <0>        -0.0800
      3 C3         21.7338   -3.4092   14.3423 C.3       1 <0>        -0.1500
      4 C4         20.5213   -1.3317   15.0173 C.3       1 <0>        -0.1400
      5 C5         20.5976   -0.0780   15.8501 C.2       1 <0>         0.5200
      6 O1         21.2446   -0.0698   16.8759 O.2       1 <0>        -0.5300
      7 N1         19.9469    1.0341   15.4549 N.am      1 <0>        -0.6200
      8 C6         20.4622    2.3657   15.8010 C.3       1 <0>         0.1100
      9 C7         19.3560    3.1641   16.4886 C.3       1 <0>        -0.1500
     10 C8         18.1134    3.1831   15.5955 C.3       1 <0>         0.1500
     11 N2         17.0615    3.9737   16.2398 N.am      1 <0>        -0.7200
     12 C9         16.1622    4.6389   15.4879 C.2       1 <0>         0.5600
     13 O2         16.2240    4.5830   14.2749 O.2       1 <0>        -0.5100
     14 C10        15.1032    5.4348   16.1368 C.ar      1 <0>        -0.1600
     15 C11        15.0044    6.8086   15.8930 C.ar      1 <0>        -0.0200
     16 C12        14.0158    7.5401   16.5012 C.ar      1 <0>        -0.1500
     17 C13        13.1033    6.9360   17.3623 C.ar      1 <0>         0.1900
     18 C14        13.2019    5.5650   17.6056 C.ar      1 <0>        -0.1400
     19 C15        14.1861    4.8202   16.9963 C.ar      1 <0>         0.0500
     20 Cl1        14.2943    3.1145   17.3009 Cl        1 <0>        -0.0100
     21 N3         12.2052    7.8800   17.8494 N.am      1 <0>        -0.6600
     22 C16        12.4473    9.1114   17.3702 C.2       1 <0>         0.5300
     23 O3         11.8231   10.1193   17.6260 O.2       1 <0>        -0.4900
     24 C17        13.6451    9.0049   16.4505 C.3       1 <0>        -0.1100
     25 C18        17.6159    1.7520   15.3800 C.3       1 <0>        -0.1400
     26 C19        18.7053    0.9378   14.6751 C.3       1 <0>         0.1100
     27 H1         23.0583   -0.3859   15.3332 H         1 <0>         0.0500
     28 H2         23.9220   -1.8660   14.8523 H         1 <0>         0.0700
     29 H3         22.8777   -1.0248   13.6818 H         1 <0>         0.0500
     30 H4         21.9366   -2.4042   16.2369 H         1 <0>         0.0800
     31 H5         20.8849   -4.0105   14.6677 H         1 <0>         0.0500
     32 H6         21.6085   -3.1415   13.2931 H         1 <0>         0.0600
     33 H7         22.6528   -3.9827   14.4635 H         1 <0>         0.0500
     34 H8         20.3960   -1.0639   13.9682 H         1 <0>         0.0900
     35 H9         19.6724   -1.9330   15.3427 H         1 <0>         0.0900
     36 H10        21.3117    2.2646   16.4764 H         1 <0>         0.0900
     37 H11        20.7734    2.8842   14.8941 H         1 <0>         0.0800
     38 H12        19.6960    4.1853   16.6608 H         1 <0>         0.0900
     39 H13        19.1116    2.6963   17.4422 H         1 <0>         0.0700
     40 H14        18.3646    3.6291   14.6332 H         1 <0>         0.0900
     41 H15        17.0122    4.0182   17.2075 H         1 <0>         0.4000
     42 H16        15.7042    7.2920   15.2274 H         1 <0>         0.1400
     43 H17        12.5000    5.0855   18.2718 H         1 <0>         0.1500
     44 H18        11.4852    7.6724   18.4654 H         1 <0>         0.4200
     45 H19        14.4660    9.6199   16.8195 H         1 <0>         0.1300
     46 H20        13.3747    9.2959   15.4356 H         1 <0>         0.1300
     47 H21        16.7173    1.7681   14.7632 H         1 <0>         0.0800
     48 H22        17.3879    1.2970   16.3439 H         1 <0>         0.0700
     49 H23        18.8704    1.3373   13.6745 H         1 <0>         0.0700
     50 H24        18.3975   -0.1055   14.6057 H         1 <0>         0.1000
@<TRIPOS>BOND
     1    1    2 1
     2    1   27 1
     3    1   28 1
     4    1   29 1
     5    2    3 1
     6    2    4 1
     7    2   30 1
     8    3   31 1
     9    3   32 1
    10    3   33 1
    11    4    5 1
    12    4   34 1
    13    4   35 1
    14    5    6 2
    15    5    7 am
    16    7   26 1
    17    7    8 1
    18    8    9 1
    19    8   36 1
    20    8   37 1
    21    9   10 1
    22    9   38 1
    23    9   39 1
    24   10   11 1
    25   10   25 1
    26   10   40 1
    27   11   12 am
    28   11   41 1
    29   12   13 2
    30   12   14 1
    31   14   19 ar
    32   14   15 ar
    33   15   16 ar
    34   15   42 1
    35   16   24 1
    36   16   17 ar
    37   17   18 ar
    38   17   21 1
    39   18   19 ar
    40   18   43 1
    41   19   20 1
    42   21   22 am
    43   21   44 1
    44   22   23 2
    45   22   24 1
    46   24   45 1
    47   24   46 1
    48   25   26 1
    49   25   47 1
    50   25   48 1
    51   26   49 1
    52   26   50 1
##########                 Name:            smyd3_960
##########          Protonation:                 none
##########               SMILES:   COCCC(=O)N1CCC(NC(=O)C2=CC3=C(C=C2Cl)NC(=O)C3)CC1
##########            Long Name:   NO_LONG_NAME
##########          FlexRecCode: 1
##########               Number:                 2587
##########   Ligand Source File: /proj/zinc22/users/x_andlu/OGG1/revisions/docking/targets/smyd3/db2gen/split_par
##########                 Rank:                    1
##########               Setnum:                   14
##########             Matchnum:                    4
##########                Cloud:                    1
##########        Electrostatic:           -19.110153
##########                 Gist:             0.000000
##########        Van der Waals:           -32.910904
##########  Ligand Polar Desolv:             6.765378
########## Ligand Apolar Desolv:            -1.426543
##########      Internal Energy:             0.000000
##########      Receptor Energy:             0.000000
########## Receptor Desolvation:             0.000000
########## Receptor Hydrophobic:             0.000000
##########         Total Energy:           -46.682224
##########        Ligand Charge:             0.000000
##########            Arbitrary:    +999.9990
##########        Ligand Energy:             0.000000

@<TRIPOS>MOLECULE
smyd3_960      none
   48    50     0     0     0
SMALL
USER_CHARGES

@<TRIPOS>ATOM
      1 C1         22.9583   -4.1404   14.4759 C.3       1 <0>         0.0300
      2 O1         21.7945   -3.3158   14.3882 O.3       1 <0>        -0.4000
      3 C2         21.8638   -2.1268   15.1778 C.3       1 <0>         0.0800
      4 C3         20.5712   -1.3259   15.0080 C.3       1 <0>        -0.1400
      5 C4         20.6443   -0.0719   15.8407 C.2       1 <0>         0.5200
      6 O2         21.2917   -0.0619   16.8663 O.2       1 <0>        -0.5400
      7 N1         19.9903    1.0384   15.4458 N.am      1 <0>        -0.6100
      8 C5         20.5019    2.3715   15.7918 C.3       1 <0>         0.1100
      9 C6         19.3938    3.1667   16.4798 C.3       1 <0>        -0.1500
     10 C7         18.1506    3.1823   15.5872 C.3       1 <0>         0.1500
     11 N2         17.0968    3.9696   16.2318 N.am      1 <0>        -0.7200
     12 C8         16.1954    4.6323   15.4803 C.2       1 <0>         0.5600
     13 O3         16.2568    4.5765   14.2672 O.2       1 <0>        -0.5100
     14 C9         15.1341    5.4251   16.1293 C.ar      1 <0>        -0.1600
     15 C10        15.0314    6.7987   15.8855 C.ar      1 <0>        -0.0200
     16 C11        14.0410    7.5275   16.4939 C.ar      1 <0>        -0.1500
     17 C12        13.1303    6.9209   17.3551 C.ar      1 <0>         0.1900
     18 C13        13.2329    5.5501   17.5985 C.ar      1 <0>        -0.1400
     19 C14        14.2191    4.8080   16.9891 C.ar      1 <0>         0.0500
     20 Cl1        14.3321    3.1027   17.2938 Cl        1 <0>        -0.0100
     21 N3         12.2297    7.8624   17.8425 N.am      1 <0>        -0.6600
     22 C15        12.4683    9.0945   17.3631 C.2       1 <0>         0.5300
     23 O4         11.8413   10.1006   17.6190 O.2       1 <0>        -0.4900
     24 C16        13.6662    8.9912   16.4432 C.3       1 <0>        -0.1100
     25 C17        17.6572    1.7496   15.3718 C.3       1 <0>        -0.1400
     26 C18        18.7488    0.9385   14.6665 C.3       1 <0>         0.1100
     27 H1         22.8270   -5.0220   13.8485 H         1 <0>         0.0400
     28 H2         23.8280   -3.5785   14.1355 H         1 <0>         0.0400
     29 H3         23.1074   -4.4496   15.5103 H         1 <0>         0.0900
     30 H4         21.9903   -2.3942   16.2269 H         1 <0>         0.0600
     31 H5         22.7108   -1.5232   14.8520 H         1 <0>         0.0600
     32 H6         20.4448   -1.0584   13.9589 H         1 <0>         0.1000
     33 H7         19.7242   -1.9295   15.3338 H         1 <0>         0.1000
     34 H8         21.3520    2.2728   16.4669 H         1 <0>         0.0900
     35 H9         20.8114    2.8908   14.8848 H         1 <0>         0.0800
     36 H10        19.7308    4.1888   16.6519 H         1 <0>         0.0900
     37 H11        19.1509    2.6981   17.4335 H         1 <0>         0.0700
     38 H12        18.4002    3.6289   14.6248 H         1 <0>         0.1000
     39 H13        17.0477    4.0142   17.1996 H         1 <0>         0.4000
     40 H14        15.7298    7.2841   15.2197 H         1 <0>         0.1400
     41 H15        12.5324    5.0688   18.2650 H         1 <0>         0.1500
     42 H16        11.5105    7.6528   18.4586 H         1 <0>         0.4200
     43 H17        14.4855    9.6085   16.8118 H         1 <0>         0.1300
     44 H18        13.3947    9.2813   15.4282 H         1 <0>         0.1300
     45 H19        16.7585    1.7632   14.7553 H         1 <0>         0.0900
     46 H20        17.4309    1.2940   16.3357 H         1 <0>         0.0700
     47 H21        18.9123    1.3387   13.6658 H         1 <0>         0.0700
     48 H22        18.4438   -0.1056   14.5972 H         1 <0>         0.1000
@<TRIPOS>BOND
     1    1    2 1
     2    1   27 1
     3    1   28 1
     4    1   29 1
     5    2    3 1
     6    3    4 1
     7    3   30 1
     8    3   31 1
     9    4    5 1
    10    4   32 1
    11    4   33 1
    12    5    6 2
    13    5    7 am
    14    7   26 1
    15    7    8 1
    16    8    9 1
    17    8   34 1
    18    8   35 1
    19    9   10 1
    20    9   36 1
    21    9   37 1
    22   10   11 1
    23   10   25 1
    24   10   38 1
    25   11   12 am
    26   11   39 1
    27   12   13 2
    28   12   14 1
    29   14   19 ar
    30   14   15 ar
    31   15   16 ar
    32   15   40 1
    33   16   24 1
    34   16   17 ar
    35   17   18 ar
    36   17   21 1
    37   18   19 ar
    38   18   41 1
    39   19   20 1
    40   21   22 am
    41   21   42 1
    42   22   23 2
    43   22   24 1
    44   24   43 1
    45   24   44 1
    46   25   26 1
    47   25   45 1
    48   25   46 1
    49   26   47 1
    50   26   48 1
##########                 Name:            smyd3_961
##########          Protonation:                 none
##########               SMILES:   CC(C)OC(=O)N1CCC(NC(=O)C2=CC3=C(C=C2Cl)NC(=O)C3)CC1
##########            Long Name:   NO_LONG_NAME
##########          FlexRecCode: 1
##########               Number:                 2589
##########   Ligand Source File: /proj/zinc22/users/x_andlu/OGG1/revisions/docking/targets/smyd3/db2gen/split_par
##########                 Rank:                    1
##########               Setnum:                  104
##########             Matchnum:                    7
##########                Cloud:                    1
##########        Electrostatic:           -17.452168
##########                 Gist:             0.000000
##########        Van der Waals:           -35.299980
##########  Ligand Polar Desolv:             7.258308
########## Ligand Apolar Desolv:            -2.049636
##########      Internal Energy:             0.000000
##########      Receptor Energy:             0.000000
########## Receptor Desolvation:             0.000000
########## Receptor Hydrophobic:             0.000000
##########         Total Energy:           -47.543476
##########        Ligand Charge:             0.000000
##########            Arbitrary:    +999.9990
##########        Ligand Energy:             0.000000

@<TRIPOS>MOLECULE
smyd3_961      none
   48    50     0     0     0
SMALL
USER_CHARGES

@<TRIPOS>ATOM
      1 C1         21.0349   -3.4689   14.0964 C.3       1 <0>        -0.1700
      2 C2         21.2899   -2.3970   15.1581 C.3       1 <0>         0.1000
      3 C3         22.6569   -1.7543   14.9158 C.3       1 <0>        -0.1500
      4 O1         20.2560   -1.3807   15.0774 O.3       1 <0>        -0.3600
      5 C4         20.3347   -0.3583   15.9499 C.2       1 <0>         0.6500
      6 O2         20.8328   -0.5307   17.0447 O.2       1 <0>        -0.5700
      7 N1         19.8609    0.8566   15.6090 N.am      1 <0>        -0.6000
      8 C5         20.4607    2.0771   16.1650 C.3       1 <0>         0.1300
      9 C6         19.3562    2.9277   16.8001 C.3       1 <0>        -0.1500
     10 C7         18.2547    3.1794   15.7674 C.3       1 <0>         0.1500
     11 N2         17.2106    4.0175   16.3621 N.am      1 <0>        -0.7200
     12 C8         16.1350    4.3735   15.6321 C.2       1 <0>         0.5600
     13 O3         16.0314    3.9992   14.4799 O.2       1 <0>        -0.5100
     14 C9         15.0838    5.2177   16.2309 C.ar      1 <0>        -0.1600
     15 C10        14.7738    6.4611   15.6701 C.ar      1 <0>        -0.0200
     16 C11        13.7944    7.2387   16.2345 C.ar      1 <0>        -0.1500
     17 C12        13.0992    6.8102   17.3624 C.ar      1 <0>         0.1900
     18 C13        13.4087    5.5693   17.9219 C.ar      1 <0>        -0.1400
     19 C14        14.3854    4.7782   17.3607 C.ar      1 <0>         0.0500
     20 Cl1        14.7567    3.2338   18.0612 Cl        1 <0>        -0.0100
     21 N3         12.1639    7.7672   17.7424 N.am      1 <0>        -0.6600
     22 C15        12.1734    8.8408   16.9350 C.2       1 <0>         0.5300
     23 O4         11.4660    9.8210   17.0318 O.2       1 <0>        -0.4900
     24 C16        13.2328    8.5973   15.8813 C.3       1 <0>        -0.1100
     25 C17        17.6481    1.8454   15.3263 C.3       1 <0>        -0.1400
     26 C18        18.7351    0.9856   14.6737 C.3       1 <0>         0.1200
     27 H1         20.0610   -3.9269   14.2690 H         1 <0>         0.0600
     28 H2         21.0513   -3.0117   13.1071 H         1 <0>         0.0800
     29 H3         21.8110   -4.2320   14.1569 H         1 <0>         0.0600
     30 H4         21.2735   -2.8543   16.1473 H         1 <0>         0.0900
     31 H5         22.8385   -0.9906   15.6720 H         1 <0>         0.0700
     32 H6         23.4331   -2.5173   14.9763 H         1 <0>         0.0800
     33 H7         22.6733   -1.2970   13.9264 H         1 <0>         0.0700
     34 H8         21.1973    1.8098   16.9227 H         1 <0>         0.1000
     35 H9         20.9446    2.6421   15.3684 H         1 <0>         0.0800
     36 H10        18.9361    2.3988   17.6556 H         1 <0>         0.0700
     37 H11        19.7737    3.8793   17.1293 H         1 <0>         0.0900
     38 H12        18.6800    3.6885   14.9025 H         1 <0>         0.1000
     39 H13        17.2934    4.3161   17.2813 H         1 <0>         0.4000
     40 H14        15.3034    6.8077   14.7951 H         1 <0>         0.1400
     41 H15        12.8766    5.2265   18.7970 H         1 <0>         0.1500
     42 H16        11.5715    7.6700   18.5042 H         1 <0>         0.4200
     43 H17        14.0106    9.3588   15.9382 H         1 <0>         0.1300
     44 H18        12.7860    8.5794   14.8872 H         1 <0>         0.1300
     45 H19        16.8492    2.0289   14.6078 H         1 <0>         0.0900
     46 H20        17.2445    1.3244   16.1945 H         1 <0>         0.0800
     47 H21        19.0760    1.4628   13.7550 H         1 <0>         0.0800
     48 H22        18.3346   -0.0022   14.4455 H         1 <0>         0.1000
@<TRIPOS>BOND
     1    1    2 1
     2    1   27 1
     3    1   28 1
     4    1   29 1
     5    2    3 1
     6    2    4 1
     7    2   30 1
     8    3   31 1
     9    3   32 1
    10    3   33 1
    11    4    5 1
    12    5    6 2
    13    5    7 am
    14    7   26 1
    15    7    8 1
    16    8    9 1
    17    8   34 1
    18    8   35 1
    19    9   10 1
    20    9   36 1
    21    9   37 1
    22   10   11 1
    23   10   25 1
    24   10   38 1
    25   11   12 am
    26   11   39 1
    27   12   13 2
    28   12   14 1
    29   14   19 ar
    30   14   15 ar
    31   15   16 ar
    32   15   40 1
    33   16   24 1
    34   16   17 ar
    35   17   18 ar
    36   17   21 1
    37   18   19 ar
    38   18   41 1
    39   19   20 1
    40   21   22 am
    41   21   42 1
    42   22   23 2
    43   22   24 1
    44   24   43 1
    45   24   44 1
    46   25   26 1
    47   25   45 1
    48   25   46 1
    49   26   47 1
    50   26   48 1
##########                 Name:            smyd3_962
##########          Protonation:                 none
##########               SMILES:   CN1C=C[NH+]=C1N1CCC(NC(=O)C2=CC3=C(C=C2Cl)NC(=O)C3)CC1
##########            Long Name:   NO_LONG_NAME
##########          FlexRecCode: 1
##########               Number:                 2596
##########   Ligand Source File: /proj/zinc22/users/x_andlu/OGG1/revisions/docking/targets/smyd3/db2gen/split_par
##########                 Rank:                    1
##########               Setnum:                    5
##########             Matchnum:                    3
##########                Cloud:                    1
##########        Electrostatic:           -26.362934
##########                 Gist:             0.000000
##########        Van der Waals:           -33.564270
##########  Ligand Polar Desolv:             8.071559
########## Ligand Apolar Desolv:            -2.134344
##########      Internal Energy:             0.000000
##########      Receptor Energy:             0.000000
########## Receptor Desolvation:             0.000000
########## Receptor Hydrophobic:             0.000000
##########         Total Energy:           -53.989990
##########        Ligand Charge:             1.000000
##########            Arbitrary:    +999.9990
##########        Ligand Energy:             0.000000

@<TRIPOS>MOLECULE
smyd3_962      none
   47    50     0     0     0
SMALL
USER_CHARGES

@<TRIPOS>ATOM
      1 C1         24.1351    3.8355   16.5687 C.3       1 <0>         0.0600
      2 N1         23.7669    2.5915   15.8880 N.pl3     1 <0>        -0.4200
      3 C2         24.6319    1.6649   15.3511 C.2       1 <0>         0.0300
      4 C3         23.8783    0.6863   14.8216 C.2       1 <0>         0.0100
      5 N2         22.5856    0.9910   15.0265 N.pl3     1 <0>        -0.5100
      6 H1         21.8304    0.4517   14.7440 H         1 <0>         0.4600
      7 C4         22.5054    2.1319   15.6691 C.cat     1 <0>         0.4900
      8 N3         21.3349    2.7643   16.0540 N.pl3     1 <0>        -0.4500
      9 C5         20.9095    3.7432   15.0454 C.3       1 <0>         0.0400
     10 C6         19.7003    4.5227   15.5672 C.3       1 <0>        -0.1300
     11 C7         18.5609    3.5454   15.8695 C.3       1 <0>         0.1400
     12 N4         17.4207    4.2791   16.4242 N.am      1 <0>        -0.7300
     13 C8         16.4733    4.7732   15.6029 C.2       1 <0>         0.5700
     14 O1         16.5649    4.6098   14.4014 O.2       1 <0>        -0.5100
     15 C9         15.3220    5.5070   16.1619 C.ar      1 <0>        -0.1700
     16 C10        15.0814    6.8327   15.7860 C.ar      1 <0>        -0.0200
     17 C11        14.0078    7.5064   16.3112 C.ar      1 <0>        -0.1500
     18 C12        13.1480    6.8908   17.2171 C.ar      1 <0>         0.2000
     19 C13        13.3880    5.5676   17.5918 C.ar      1 <0>        -0.1400
     20 C14        14.4593    4.8803   17.0676 C.ar      1 <0>         0.0500
     21 Cl1        14.7437    3.2331   17.5360 Cl        1 <0>        -0.0100
     22 N5         12.1443    7.7734   17.6024 N.am      1 <0>        -0.6600
     23 C15        12.2626    8.9731   17.0097 C.2       1 <0>         0.5300
     24 O2         11.5294    9.9269   17.1619 O.2       1 <0>        -0.4800
     25 C16        13.4833    8.9110   16.1165 C.3       1 <0>        -0.1100
     26 C17        19.0452    2.5077   16.8861 C.3       1 <0>        -0.1300
     27 C18        20.2735    1.7867   16.3259 C.3       1 <0>         0.0500
     28 H2         25.2208    3.9302   16.5901 H         1 <0>         0.1100
     29 H3         23.7069    4.6829   16.0334 H         1 <0>         0.1200
     30 H4         23.7518    3.8187   17.5889 H         1 <0>         0.1100
     31 H5         25.7107    1.7168   15.3515 H         1 <0>         0.2300
     32 H6         24.2484   -0.1944   14.3181 H         1 <0>         0.2200
     33 H7         20.6377    3.2234   14.1267 H         1 <0>         0.0800
     34 H8         21.7274    4.4347   14.8427 H         1 <0>         0.1000
     35 H9         19.3752    5.2384   14.8121 H         1 <0>         0.1000
     36 H10        19.9750    5.0544   16.4783 H         1 <0>         0.0900
     37 H11        18.2586    3.0430   14.9506 H         1 <0>         0.1000
     38 H12        17.3477    4.4094   17.3827 H         1 <0>         0.4000
     39 H13        15.7387    7.3243   15.0842 H         1 <0>         0.1400
     40 H14        12.7279    5.0797   18.2937 H         1 <0>         0.1500
     41 H15        11.4384    7.5479   18.2283 H         1 <0>         0.4200
     42 H16        14.2259    9.6434   16.4327 H         1 <0>         0.1300
     43 H17        13.2039    9.0737   15.0755 H         1 <0>         0.1300
     44 H18        19.3100    3.0072   17.8180 H         1 <0>         0.0900
     45 H19        18.2522    1.7838   17.0730 H         1 <0>         0.1000
     46 H20        20.0046    1.2760   15.4013 H         1 <0>         0.0800
     47 H21        20.6294    1.0571   17.0533 H         1 <0>         0.1000
@<TRIPOS>BOND
     1    1    2 1
     2    1   28 1
     3    1   29 1
     4    1   30 1
     5    2    7 1
     6    2    3 1
     7    3    4 2
     8    3   31 1
     9    4    5 1
    10    4   32 1
    11    5    6 1
    12    5    7 1
    13    7    8 1
    14    8   27 1
    15    8    9 1
    16    9   10 1
    17    9   33 1
    18    9   34 1
    19   10   11 1
    20   10   35 1
    21   10   36 1
    22   11   12 1
    23   11   26 1
    24   11   37 1
    25   12   13 am
    26   12   38 1
    27   13   14 2
    28   13   15 1
    29   15   20 ar
    30   15   16 ar
    31   16   17 ar
    32   16   39 1
    33   17   25 1
    34   17   18 ar
    35   18   19 ar
    36   18   22 1
    37   19   20 ar
    38   19   40 1
    39   20   21 1
    40   22   23 am
    41   22   41 1
    42   23   24 2
    43   23   25 1
    44   25   42 1
    45   25   43 1
    46   26   27 1
    47   26   44 1
    48   26   45 1
    49   27   46 1
    50   27   47 1
##########                 Name:            smyd3_963
##########          Protonation:                 none
##########               SMILES:   CN1N=NN=C1N1CCC(NC(=O)C2=CC3=C(C=C2Cl)NC(=O)C3)CC1
##########            Long Name:   NO_LONG_NAME
##########          FlexRecCode: 1
##########               Number:                 2599
##########   Ligand Source File: /proj/zinc22/users/x_andlu/OGG1/revisions/docking/targets/smyd3/db2gen/split_par
##########                 Rank:                    1
##########               Setnum:                    4
##########             Matchnum:                    1
##########                Cloud:                    1
##########        Electrostatic:           -13.005911
##########                 Gist:             0.000000
##########        Van der Waals:           -34.719582
##########  Ligand Polar Desolv:             7.515308
########## Ligand Apolar Desolv:            -1.449129
##########      Internal Energy:             0.000000
##########      Receptor Energy:             0.000000
########## Receptor Desolvation:             0.000000
########## Receptor Hydrophobic:             0.000000
##########         Total Energy:           -41.659313
##########        Ligand Charge:             0.000000
##########            Arbitrary:    +999.9990
##########        Ligand Energy:             0.000000

@<TRIPOS>MOLECULE
smyd3_963      none
   44    47     0     0     0
SMALL
USER_CHARGES

@<TRIPOS>ATOM
      1 C1         24.0420    3.3109   16.1815 C.3       1 <0>         0.0900
      2 N1         23.5589    2.0174   15.6916 N.pl3     1 <0>        -0.3900
      3 N2         24.3291    0.9516   15.1943 N.2       1 <0>        -0.0800
      4 N3         23.5045    0.0147   14.8712 N.2       1 <0>        -0.0200
      5 N4         22.2977    0.3782   15.1178 N.2       1 <0>        -0.3600
      6 C2         22.2764    1.5920   15.6229 C.2       1 <0>         0.4200
      7 N5         21.1529    2.3029   16.0064 N.pl3     1 <0>        -0.4500
      8 C3         20.6802    3.1676   14.9177 C.3       1 <0>         0.0700
      9 C4         19.5305    4.0427   15.4221 C.3       1 <0>        -0.1300
     10 C5         18.3925    3.1462   15.9177 C.3       1 <0>         0.1400
     11 N6         17.3129    3.9777   16.4556 N.am      1 <0>        -0.7200
     12 C6         16.3213    4.4005   15.6468 C.2       1 <0>         0.5600
     13 O1         16.3227    4.0920   14.4707 O.2       1 <0>        -0.5100
     14 C7         15.2341    5.2378   16.1884 C.ar      1 <0>        -0.1600
     15 C8         15.0057    6.5174   15.6714 C.ar      1 <0>        -0.0200
     16 C9         13.9921    7.2884   16.1819 C.ar      1 <0>        -0.1500
     17 C10        13.1817    6.8177   17.2117 C.ar      1 <0>         0.1900
     18 C11        13.4098    5.5407   17.7277 C.ar      1 <0>        -0.1400
     19 C12        14.4201    4.7560   17.2193 C.ar      1 <0>         0.0500
     20 Cl1        14.6896    3.1668   17.8640 Cl        1 <0>        -0.0100
     21 N7         12.2337    7.7764   17.5534 N.am      1 <0>        -0.6600
     22 C13        12.3439    8.8915   16.8126 C.2       1 <0>         0.5300
     23 O2         11.6504    9.8830   16.8960 O.2       1 <0>        -0.4900
     24 C14        13.4957    8.6781   15.8535 C.3       1 <0>        -0.1100
     25 C15        18.9232    2.2222   17.0174 C.3       1 <0>        -0.1300
     26 C16        20.0904    1.3998   16.4668 C.3       1 <0>         0.0500
     27 H1         25.1289    3.3451   16.1061 H         1 <0>         0.0900
     28 H2         23.6107    4.1112   15.5801 H         1 <0>         0.1100
     29 H3         23.7458    3.4387   17.2225 H         1 <0>         0.1000
     30 H4         20.3307    2.5508   14.0897 H         1 <0>         0.0700
     31 H5         21.4979    3.8028   14.5774 H         1 <0>         0.1000
     32 H6         19.1695    4.6732   14.6094 H         1 <0>         0.0900
     33 H7         19.8828    4.6698   16.2410 H         1 <0>         0.0800
     34 H8         18.0131    2.5477   15.0894 H         1 <0>         0.1000
     35 H9         17.3140    4.2272   17.3929 H         1 <0>         0.4000
     36 H10        15.6252    6.8970   14.8724 H         1 <0>         0.1400
     37 H11        12.7879    5.1649   18.5267 H         1 <0>         0.1500
     38 H12        11.5679    7.6535   18.2481 H         1 <0>         0.4200
     39 H13        14.2795    9.4151   16.0277 H         1 <0>         0.1300
     40 H14        13.1476    8.7257   14.8216 H         1 <0>         0.1300
     41 H15        19.2659    2.8207   17.8615 H         1 <0>         0.0800
     42 H16        18.1283    1.5520   17.3446 H         1 <0>         0.0900
     43 H17        19.7438    0.7913   15.6315 H         1 <0>         0.0600
     44 H18        20.4797    0.7512   17.2514 H         1 <0>         0.0900
@<TRIPOS>BOND
     1    1    2 1
     2    1   27 1
     3    1   28 1
     4    1   29 1
     5    2    6 1
     6    2    3 1
     7    3    4 2
     8    4    5 1
     9    5    6 2
    10    6    7 1
    11    7   26 1
    12    7    8 1
    13    8    9 1
    14    8   30 1
    15    8   31 1
    16    9   10 1
    17    9   32 1
    18    9   33 1
    19   10   11 1
    20   10   25 1
    21   10   34 1
    22   11   12 am
    23   11   35 1
    24   12   13 2
    25   12   14 1
    26   14   19 ar
    27   14   15 ar
    28   15   16 ar
    29   15   36 1
    30   16   24 1
    31   16   17 ar
    32   17   18 ar
    33   17   21 1
    34   18   19 ar
    35   18   37 1
    36   19   20 1
    37   21   22 am
    38   21   38 1
    39   22   23 2
    40   22   24 1
    41   24   39 1
    42   24   40 1
    43   25   26 1
    44   25   41 1
    45   25   42 1
    46   26   43 1
    47   26   44 1
##########                 Name:            smyd3_964
##########          Protonation:                 none
##########               SMILES:   NC1=NNC(N2CCC(NC(=O)C3=C(Cl)C=C4NC(=O)CC4=C3)CC2)=N1
##########            Long Name:   NO_LONG_NAME
##########          FlexRecCode: 1
##########               Number:                 2602
##########   Ligand Source File: /proj/zinc22/users/x_andlu/OGG1/revisions/docking/targets/smyd3/db2gen/split_par
##########                 Rank:                    1
##########               Setnum:                    5
##########             Matchnum:                   13
##########                Cloud:                    1
##########        Electrostatic:           -14.447323
##########                 Gist:             0.000000
##########        Van der Waals:           -35.053024
##########  Ligand Polar Desolv:             6.827462
########## Ligand Apolar Desolv:            -2.012525
##########      Internal Energy:             0.000000
##########      Receptor Energy:             0.000000
########## Receptor Desolvation:             0.000000
########## Receptor Hydrophobic:             0.000000
##########         Total Energy:           -44.685410
##########        Ligand Charge:             0.000000
##########            Arbitrary:    +999.9990
##########        Ligand Energy:             0.000000

@<TRIPOS>MOLECULE
smyd3_964      none
   44    47     0     0     0
SMALL
USER_CHARGES

@<TRIPOS>ATOM
      1 N1         24.0288   -1.4054   15.0526 N.pl3     1 <0>        -0.8200
      2 C1         23.5436   -0.1021   15.1699 C.2       1 <0>         0.4900
      3 N2         24.2049    0.9874   14.8627 N.2       1 <0>        -0.3700
      4 N3         23.3543    2.0720   15.1310 N.pl3     1 <0>        -0.4900
      5 C2         22.2014    1.5478   15.5963 C.2       1 <0>         0.4800
      6 N4         21.0827    2.2614   15.9860 N.pl3     1 <0>        -0.4600
      7 C3         20.6153    3.1387   14.9050 C.3       1 <0>         0.0800
      8 C4         19.4708    4.0161   15.4171 C.3       1 <0>        -0.1300
      9 C5         18.3274    3.1218   15.9044 C.3       1 <0>         0.1400
     10 N5         17.2526    3.9548   16.4497 N.am      1 <0>        -0.7200
     11 C6         16.2637    4.3908   15.6446 C.2       1 <0>         0.5600
     12 O1         16.2635    4.0929   14.4657 O.2       1 <0>        -0.5100
     13 C7         15.1814    5.2296   16.1935 C.ar      1 <0>        -0.1600
     14 C8         14.3645    4.7436   17.2197 C.ar      1 <0>         0.0500
     15 Cl1        14.6245    3.1471   17.8500 Cl        1 <0>        -0.0100
     16 C9         13.3585    5.5298   17.7351 C.ar      1 <0>        -0.1400
     17 C10        13.1382    6.8122   17.2307 C.ar      1 <0>         0.1900
     18 N6         12.1962    7.7738   17.5811 N.am      1 <0>        -0.6600
     19 C11        12.3134    8.8950   16.8505 C.2       1 <0>         0.5300
     20 O2         11.6263    9.8901   16.9432 O.2       1 <0>        -0.4900
     21 C12        13.4639    8.6834   15.8895 C.3       1 <0>        -0.1100
     22 C13        13.9518    7.2877   16.2050 C.ar      1 <0>        -0.1500
     23 C14        14.9606    6.5154   15.6879 C.ar      1 <0>        -0.0200
     24 C15        18.8524    2.1849   16.9959 C.3       1 <0>        -0.1300
     25 C16        20.0148    1.3606   16.4380 C.3       1 <0>         0.0600
     26 N7         22.3307    0.2382   15.6196 N.2       1 <0>        -0.5900
     27 H1         23.4699   -2.1558   15.3086 H         1 <0>         0.4100
     28 H2         24.9248   -1.5609   14.7152 H         1 <0>         0.4100
     29 H3         23.5556    3.0126   15.0057 H         1 <0>         0.4400
     30 H4         20.2624    2.5315   14.0714 H         1 <0>         0.0600
     31 H5         21.4370    3.7721   14.5706 H         1 <0>         0.1000
     32 H6         19.1137    4.6560   14.6101 H         1 <0>         0.0900
     33 H7         19.8265    4.6336   16.2418 H         1 <0>         0.0800
     34 H8         17.9447    2.5331   15.0707 H         1 <0>         0.0900
     35 H9         17.2551    4.1959   17.3892 H         1 <0>         0.4000
     36 H10        12.7343    5.1506   18.5306 H         1 <0>         0.1500
     37 H11        11.5298    7.6488   18.2747 H         1 <0>         0.4200
     38 H12        14.2523    9.4139   16.0705 H         1 <0>         0.1300
     39 H13        13.1162    8.7426   14.8581 H         1 <0>         0.1300
     40 H14        15.5825    6.8987   14.8924 H         1 <0>         0.1400
     41 H15        19.1984    2.7737   17.8453 H         1 <0>         0.0800
     42 H16        18.0535    1.5165   17.3169 H         1 <0>         0.0900
     43 H17        19.6648    0.7617   15.5972 H         1 <0>         0.0600
     44 H18        20.4001    0.7026   17.2168 H         1 <0>         0.0800
@<TRIPOS>BOND
     1    1    2 1
     2    1   27 1
     3    1   28 1
     4    2   26 1
     5    2    3 2
     6    3    4 1
     7    4    5 1
     8    4   29 1
     9    5    6 1
    10    5   26 2
    11    6   25 1
    12    6    7 1
    13    7    8 1
    14    7   30 1
    15    7   31 1
    16    8    9 1
    17    8   32 1
    18    8   33 1
    19    9   10 1
    20    9   24 1
    21    9   34 1
    22   10   11 am
    23   10   35 1
    24   11   12 2
    25   11   13 1
    26   13   23 ar
    27   13   14 ar
    28   14   15 1
    29   14   16 ar
    30   16   17 ar
    31   16   36 1
    32   17   22 ar
    33   17   18 1
    34   18   19 am
    35   18   37 1
    36   19   20 2
    37   19   21 1
    38   21   22 1
    39   21   38 1
    40   21   39 1
    41   22   23 ar
    42   23   40 1
    43   24   25 1
    44   24   41 1
    45   24   42 1
    46   25   43 1
    47   25   44 1
##########                 Name:            smyd3_965
##########          Protonation:                 none
##########               SMILES:   CN1C=C(N2CCC(NC(=O)C3=CC4=C(C=C3Cl)NC(=O)C4)CC2)C=N1
##########            Long Name:   NO_LONG_NAME
##########          FlexRecCode: 1
##########               Number:                 2607
##########   Ligand Source File: /proj/zinc22/users/x_andlu/OGG1/revisions/docking/targets/smyd3/db2gen/split_par
##########                 Rank:                    1
##########               Setnum:                   12
##########             Matchnum:                   15
##########                Cloud:                    1
##########        Electrostatic:           -14.992891
##########                 Gist:             0.000000
##########        Van der Waals:           -35.268852
##########  Ligand Polar Desolv:             6.967380
########## Ligand Apolar Desolv:            -1.410680
##########      Internal Energy:             0.000000
##########      Receptor Energy:             0.000000
########## Receptor Desolvation:             0.000000
########## Receptor Hydrophobic:             0.000000
##########         Total Energy:           -44.705040
##########        Ligand Charge:             0.000000
##########            Arbitrary:    +999.9990
##########        Ligand Energy:             0.000000

@<TRIPOS>MOLECULE
smyd3_965      none
   46    49     0     0     0
SMALL
USER_CHARGES

@<TRIPOS>ATOM
      1 C1         24.5900   -0.7586   14.6664 C.3       1 <0>         0.1000
      2 N1         23.2093   -0.6733   15.1489 N.pl3     1 <0>        -0.3700
      3 C2         22.5222    0.4703   15.4111 C.2       1 <0>         0.0400
      4 C3         21.2831    0.1150   15.8354 C.2       1 <0>        -0.0500
      5 N2         20.2514    0.9962   16.2116 N.pl3     1 <0>        -0.4600
      6 C4         19.0340    0.7455   15.4297 C.3       1 <0>         0.0600
      7 C5         17.8952    1.6180   15.9625 C.3       1 <0>        -0.1300
      8 C6         18.2965    3.0921   15.8584 C.3       1 <0>         0.1500
      9 N3         17.2341    3.9295   16.4207 N.am      1 <0>        -0.7200
     10 C7         16.2414    4.3809   15.6287 C.2       1 <0>         0.5600
     11 O1         16.2276    4.0929   14.4473 O.2       1 <0>        -0.5100
     12 C8         15.1716    5.2243   16.1949 C.ar      1 <0>        -0.1500
     13 C9         14.9575    6.5157   15.7022 C.ar      1 <0>        -0.0200
     14 C10        13.9600    7.2924   16.2355 C.ar      1 <0>        -0.1500
     15 C11        13.1521    6.8156   17.2644 C.ar      1 <0>         0.1900
     16 C12        13.3660    5.5265   17.7559 C.ar      1 <0>        -0.1400
     17 C13        14.3600    4.7363   17.2247 C.ar      1 <0>         0.0500
     18 Cl1        14.6119    3.1323   17.8391 Cl        1 <0>        -0.0100
     19 N4         12.2214    7.7819   17.6316 N.am      1 <0>        -0.6600
     20 C14        12.3412    8.9081   16.9092 C.2       1 <0>         0.5300
     21 O2         11.6633    9.9080   17.0164 O.2       1 <0>        -0.4900
     22 C15        13.4811    8.6949   15.9359 C.3       1 <0>        -0.1100
     23 C16        19.5933    3.3163   16.6412 C.3       1 <0>        -0.1200
     24 C17        20.6828    2.3945   16.0887 C.3       1 <0>         0.0600
     25 C18        21.2124   -1.2854   15.8320 C.2       1 <0>         0.0200
     26 N5         22.3627   -1.7554   15.4219 N.2       1 <0>        -0.2800
     27 H1         24.9953    0.2459   14.5455 H         1 <0>         0.0800
     28 H2         25.1935   -1.3095   15.3876 H         1 <0>         0.0900
     29 H3         24.6083   -1.2756   13.7069 H         1 <0>         0.0900
     30 H4         22.8945    1.4780   15.3013 H         1 <0>         0.1800
     31 H5         19.2181    0.9880   14.3831 H         1 <0>         0.0400
     32 H6         18.7572   -0.3053   15.5156 H         1 <0>         0.0800
     33 H7         17.7012    1.3665   17.0052 H         1 <0>         0.0800
     34 H8         16.9955    1.4433   15.3725 H         1 <0>         0.0800
     35 H9         18.4528    3.3540   14.8120 H         1 <0>         0.0900
     36 H10        17.2451    4.1592   17.3631 H         1 <0>         0.4000
     37 H11        15.5751    6.9004   14.9042 H         1 <0>         0.1400
     38 H12        12.7459    5.1460   18.5541 H         1 <0>         0.1500
     39 H13        11.5603    7.6566   18.3302 H         1 <0>         0.4200
     40 H14        14.2772    9.4172   16.1156 H         1 <0>         0.1300
     41 H15        13.1245    8.7655   14.9084 H         1 <0>         0.1300
     42 H16        19.4260    3.0914   17.6945 H         1 <0>         0.0800
     43 H17        19.9071    4.3548   16.5356 H         1 <0>         0.0800
     44 H18        21.6035    2.5415   16.6533 H         1 <0>         0.0900
     45 H19        20.8593    2.6293   15.0390 H         1 <0>         0.0500
     46 H20        20.3543   -1.8757   16.1183 H         1 <0>         0.1800
@<TRIPOS>BOND
     1    1    2 1
     2    1   27 1
     3    1   28 1
     4    1   29 1
     5    2   26 1
     6    2    3 1
     7    3    4 2
     8    3   30 1
     9    4    5 1
    10    4   25 1
    11    5   24 1
    12    5    6 1
    13    6    7 1
    14    6   31 1
    15    6   32 1
    16    7    8 1
    17    7   33 1
    18    7   34 1
    19    8    9 1
    20    8   23 1
    21    8   35 1
    22    9   10 am
    23    9   36 1
    24   10   11 2
    25   10   12 1
    26   12   17 ar
    27   12   13 ar
    28   13   14 ar
    29   13   37 1
    30   14   22 1
    31   14   15 ar
    32   15   16 ar
    33   15   19 1
    34   16   17 ar
    35   16   38 1
    36   17   18 1
    37   19   20 am
    38   19   39 1
    39   20   21 2
    40   20   22 1
    41   22   40 1
    42   22   41 1
    43   23   24 1
    44   23   42 1
    45   23   43 1
    46   24   44 1
    47   24   45 1
    48   25   26 2
    49   25   46 1
##########                 Name:            smyd3_966
##########          Protonation:                 none
##########               SMILES:   CC1=CC(N2CCC(NC(=O)C3=CC4=C(C=C3Cl)NC(=O)C4)CC2)=NN1
##########            Long Name:   NO_LONG_NAME
##########          FlexRecCode: 1
##########               Number:                 2611
##########   Ligand Source File: /proj/zinc22/users/x_andlu/OGG1/revisions/docking/targets/smyd3/db2gen/split_par
##########                 Rank:                    1
##########               Setnum:                    2
##########             Matchnum:                    5
##########                Cloud:                    1
##########        Electrostatic:           -13.760715
##########                 Gist:             0.000000
##########        Van der Waals:           -33.869186
##########  Ligand Polar Desolv:             6.904027
########## Ligand Apolar Desolv:            -1.554561
##########      Internal Energy:             0.000000
##########      Receptor Energy:             0.000000
########## Receptor Desolvation:             0.000000
########## Receptor Hydrophobic:             0.000000
##########         Total Energy:           -42.280437
##########        Ligand Charge:             0.000000
##########            Arbitrary:    +999.9990
##########        Ligand Energy:             0.000000

@<TRIPOS>MOLECULE
smyd3_966      none
   46    49     0     0     0
SMALL
USER_CHARGES

@<TRIPOS>ATOM
      1 C1         23.7554   -2.3896   15.3878 C.3       1 <0>        -0.1000
      2 C2         23.2133   -0.9835   15.3921 C.2       1 <0>         0.1000
      3 C3         22.0281   -0.5885   15.9105 C.2       1 <0>        -0.2700
      4 C4         21.9088    0.7957   15.7068 C.2       1 <0>         0.2600
      5 N1         20.8267    1.5939   16.0962 N.pl3     1 <0>        -0.4500
      6 C5         21.0879    3.0104   15.8103 C.3       1 <0>         0.0600
      7 C6         19.9526    3.8648   16.3787 C.3       1 <0>        -0.1300
      8 C7         18.6279    3.4324   15.7438 C.3       1 <0>         0.1400
      9 N2         17.5297    4.2071   16.3268 N.am      1 <0>        -0.7200
     10 C8         16.4305    4.4745   15.5942 C.2       1 <0>         0.5600
     11 O1         16.3505    4.0728   14.4493 O.2       1 <0>        -0.5100
     12 C9         15.3246    5.2545   16.1813 C.ar      1 <0>        -0.1500
     13 C10        14.9278    6.4629   15.5991 C.ar      1 <0>        -0.0200
     14 C11        13.8981    7.1811   16.1527 C.ar      1 <0>        -0.1500
     15 C12        13.2368    6.7263   17.2905 C.ar      1 <0>         0.1900
     16 C13        13.6329    5.5202   17.8715 C.ar      1 <0>        -0.1400
     17 C14        14.6608    4.7884   17.3213 C.ar      1 <0>         0.0500
     18 Cl1        15.1397    3.2865   18.0484 Cl        1 <0>        -0.0100
     19 N3         12.2383    7.6229   17.6564 N.am      1 <0>        -0.6600
     20 C15        12.1717    8.6796   16.8297 C.2       1 <0>         0.5300
     21 O2         11.3980    9.6100   16.9112 O.2       1 <0>        -0.4900
     22 C16        13.2430    8.4908   15.7769 C.3       1 <0>        -0.1100
     23 C17        18.4034    1.9422   16.0150 C.3       1 <0>        -0.1300
     24 C18        19.5836    1.1436   15.4572 C.3       1 <0>         0.0700
     25 N4         22.9864    1.2092   15.0824 N.2       1 <0>        -0.3300
     26 N5         23.8241    0.1051   14.8791 N.pl3     1 <0>        -0.4700
     27 H1         23.0415   -3.0557   15.8722 H         1 <0>         0.0800
     28 H2         23.9153   -2.7143   14.3596 H         1 <0>         0.0700
     29 H3         24.7015   -2.4160   15.9285 H         1 <0>         0.0900
     30 H4         21.3026   -1.2248   16.3953 H         1 <0>         0.1500
     31 H5         21.1487    3.1581   14.7320 H         1 <0>         0.0500
     32 H6         22.0305    3.3061   16.2708 H         1 <0>         0.0900
     33 H7         20.1389    4.9147   16.1526 H         1 <0>         0.0800
     34 H8         19.9000    3.7282   17.4587 H         1 <0>         0.0800
     35 H9         18.6656    3.6062   14.6684 H         1 <0>         0.0900
     36 H10        17.5954    4.5309   17.2387 H         1 <0>         0.4000
     37 H11        15.4303    6.8293   14.7162 H         1 <0>         0.1400
     38 H12        13.1276    5.1575   18.7544 H         1 <0>         0.1500
     39 H13        11.6557    7.4989   18.4219 H         1 <0>         0.4200
     40 H14        13.9661    9.3052   15.8172 H         1 <0>         0.1300
     41 H15        12.7963    8.4238   14.7848 H         1 <0>         0.1300
     42 H16        18.3265    1.7755   17.0894 H         1 <0>         0.0800
     43 H17        17.4830    1.6185   15.5292 H         1 <0>         0.0800
     44 H18        19.6515    1.3000   14.3806 H         1 <0>         0.0500
     45 H19        19.4338    0.0835   15.6613 H         1 <0>         0.0900
     46 H20        24.6900    0.1198   14.4421 H         1 <0>         0.4400
@<TRIPOS>BOND
     1    1    2 1
     2    1   27 1
     3    1   28 1
     4    1   29 1
     5    2   26 1
     6    2    3 2
     7    3    4 1
     8    3   30 1
     9    4    5 1
    10    4   25 2
    11    5   24 1
    12    5    6 1
    13    6    7 1
    14    6   31 1
    15    6   32 1
    16    7    8 1
    17    7   33 1
    18    7   34 1
    19    8    9 1
    20    8   23 1
    21    8   35 1
    22    9   10 am
    23    9   36 1
    24   10   11 2
    25   10   12 1
    26   12   17 ar
    27   12   13 ar
    28   13   14 ar
    29   13   37 1
    30   14   22 1
    31   14   15 ar
    32   15   16 ar
    33   15   19 1
    34   16   17 ar
    35   16   38 1
    36   17   18 1
    37   19   20 am
    38   19   39 1
    39   20   21 2
    40   20   22 1
    41   22   40 1
    42   22   41 1
    43   23   24 1
    44   23   42 1
    45   23   43 1
    46   24   44 1
    47   24   45 1
    48   25   26 1
    49   26   46 1
##########                 Name:            smyd3_967
##########          Protonation:                 none
##########               SMILES:   CC(C)S(=O)(=O)N1CCC(NC(=O)C2=CC3=C(C=C2Cl)NC(=O)C3)CC1
##########            Long Name:   NO_LONG_NAME
##########          FlexRecCode: 1
##########               Number:                 2612
##########   Ligand Source File: /proj/zinc22/users/x_andlu/OGG1/revisions/docking/targets/smyd3/db2gen/split_par
##########                 Rank:                    1
##########               Setnum:                   70
##########             Matchnum:                    1
##########                Cloud:                    1
##########        Electrostatic:           -19.162327
##########                 Gist:             0.000000
##########        Van der Waals:           -31.845718
##########  Ligand Polar Desolv:             6.924825
########## Ligand Apolar Desolv:            -1.335352
##########      Internal Energy:             0.000000
##########      Receptor Energy:             0.000000
########## Receptor Desolvation:             0.000000
########## Receptor Hydrophobic:             0.000000
##########         Total Energy:           -45.418575
##########        Ligand Charge:             0.000000
##########            Arbitrary:    +999.9990
##########        Ligand Energy:             0.000000

@<TRIPOS>MOLECULE
smyd3_967      none
   48    50     0     0     0
SMALL
USER_CHARGES

@<TRIPOS>ATOM
      1 C1         25.1033    2.4504   13.6629 C.3       1 <0>        -0.1400
      2 C2         23.8329    2.2990   14.5021 C.3       1 <0>        -0.5900
      3 C3         24.2056    1.8393   15.9131 C.3       1 <0>        -0.1500
      4 S1         22.9744    3.8943   14.5929 S.o2      1 <0>         2.6100
      5 O1         23.0234    4.5591   13.3381 O.2       1 <0>        -0.9500
      6 O2         23.3098    4.5732   15.7954 O.2       1 <0>        -0.9500
      7 N1         21.3784    3.4945   14.7813 N.pl3     1 <0>        -1.0000
      8 C4         20.3783    3.9206   13.7928 C.3       1 <0>         0.1200
      9 C5         19.2498    4.6587   14.5198 C.3       1 <0>        -0.1400
     10 C6         18.6943    3.7653   15.6312 C.3       1 <0>         0.1500
     11 N2         17.5927    4.4550   16.3071 N.am      1 <0>        -0.7200
     12 C7         16.5005    4.8254   15.6098 C.2       1 <0>         0.5600
     13 O3         16.4292    4.5872   14.4196 O.2       1 <0>        -0.5100
     14 C8         15.3912    5.5199   16.2908 C.ar      1 <0>        -0.1600
     15 C9         15.0061    6.8014   15.8832 C.ar      1 <0>        -0.0200
     16 C10        13.9734    7.4391   16.5230 C.ar      1 <0>        -0.1500
     17 C11        13.2978    6.8302   17.5772 C.ar      1 <0>         0.1900
     18 C12        13.6822    5.5513   17.9841 C.ar      1 <0>        -0.1400
     19 C13        14.7167    4.9019   17.3494 C.ar      1 <0>         0.0500
     20 Cl1        15.1855    3.3115   17.8636 Cl        1 <0>        -0.0100
     21 N3         12.3029    7.6735   18.0612 N.am      1 <0>        -0.6600
     22 C14        12.2460    8.8354   17.3895 C.2       1 <0>         0.5300
     23 O4         11.4759    9.7494   17.5955 O.2       1 <0>        -0.4900
     24 C15        13.3281    8.7929   16.3316 C.3       1 <0>        -0.1100
     25 C16        19.8010    3.4584   16.6427 C.3       1 <0>        -0.1400
     26 C17        20.9357    2.7067   15.9397 C.3       1 <0>         0.1200
     27 H1         24.8379    2.7779   12.6577 H         1 <0>         0.0800
     28 H2         25.7578    3.1895   14.1249 H         1 <0>         0.0700
     29 H3         25.6192    1.4918   13.6085 H         1 <0>         0.0700
     30 H4         23.1783    1.5598   14.0402 H         1 <0>         0.1400
     31 H5         23.3005    1.7313   16.5109 H         1 <0>         0.0700
     32 H6         24.7215    0.8806   15.8584 H         1 <0>         0.0800
     33 H7         24.8602    2.5784   16.3750 H         1 <0>         0.0700
     34 H8         19.9737    3.0467   13.2822 H         1 <0>         0.0700
     35 H9         20.8415    4.5870   13.0652 H         1 <0>         0.1000
     36 H10        18.4553    4.8960   13.8123 H         1 <0>         0.0900
     37 H11        19.6383    5.5801   14.9539 H         1 <0>         0.0800
     38 H12        18.3288    2.8335   15.1994 H         1 <0>         0.0900
     39 H13        17.6494    4.6450   17.2567 H         1 <0>         0.4000
     40 H14        15.5199    7.2873   15.0669 H         1 <0>         0.1400
     41 H15        13.1654    5.0689   18.8006 H         1 <0>         0.1500
     42 H16        11.7151    7.4471   18.7989 H         1 <0>         0.4200
     43 H17        12.8920    8.8708   15.3356 H         1 <0>         0.1300
     44 H18        14.0529    9.5906   16.4939 H         1 <0>         0.1300
     45 H19        20.1842    4.3912   17.0567 H         1 <0>         0.0700
     46 H20        19.3987    2.8414   17.4462 H         1 <0>         0.0800
     47 H21        20.5766    1.7338   15.6043 H         1 <0>         0.0700
     48 H22        21.7689    2.5708   16.6292 H         1 <0>         0.0900
@<TRIPOS>BOND
     1    1    2 1
     2    1   27 1
     3    1   28 1
     4    1   29 1
     5    2    3 1
     6    2    4 1
     7    2   30 1
     8    3   31 1
     9    3   32 1
    10    3   33 1
    11    4    5 2
    12    4    6 2
    13    4    7 1
    14    7   26 1
    15    7    8 1
    16    8    9 1
    17    8   34 1
    18    8   35 1
    19    9   10 1
    20    9   36 1
    21    9   37 1
    22   10   11 1
    23   10   25 1
    24   10   38 1
    25   11   12 am
    26   11   39 1
    27   12   13 2
    28   12   14 1
    29   14   19 ar
    30   14   15 ar
    31   15   16 ar
    32   15   40 1
    33   16   24 1
    34   16   17 ar
    35   17   18 ar
    36   17   21 1
    37   18   19 ar
    38   18   41 1
    39   19   20 1
    40   21   22 am
    41   21   42 1
    42   22   23 2
    43   22   24 1
    44   24   43 1
    45   24   44 1
    46   25   26 1
    47   25   45 1
    48   25   46 1
    49   26   47 1
    50   26   48 1
##########                 Name:            smyd3_968
##########          Protonation:                 none
##########               SMILES:   O=C1CC2=CC(C(=O)NC3CCN(S(=O)(=O)C4CC4)CC3)=C(Cl)C=C2N1
##########            Long Name:   NO_LONG_NAME
##########          FlexRecCode: 1
##########               Number:                 2615
##########   Ligand Source File: /proj/zinc22/users/x_andlu/OGG1/revisions/docking/targets/smyd3/db2gen/split_par
##########                 Rank:                    1
##########               Setnum:                   47
##########             Matchnum:                   11
##########                Cloud:                    1
##########        Electrostatic:           -17.251114
##########                 Gist:             0.000000
##########        Van der Waals:           -37.178326
##########  Ligand Polar Desolv:             8.350906
########## Ligand Apolar Desolv:            -1.457779
##########      Internal Energy:             0.000000
##########      Receptor Energy:             0.000000
########## Receptor Desolvation:             0.000000
########## Receptor Hydrophobic:             0.000000
##########         Total Energy:           -47.536312
##########        Ligand Charge:             0.000000
##########            Arbitrary:    +999.9990
##########        Ligand Energy:             0.000000

@<TRIPOS>MOLECULE
smyd3_968      none
   46    49     0     0     0
SMALL
USER_CHARGES

@<TRIPOS>ATOM
      1 O1         11.7250    9.9101   16.9754 O.2       1 <0>        -0.4900
      2 C1         12.3831    8.8953   16.8862 C.2       1 <0>         0.5300
      3 C2         13.4201    8.5867   15.8271 C.3       1 <0>        -0.1100
      4 C3         13.9181    7.2073   16.1941 C.ar      1 <0>        -0.1500
      5 C4         14.8531    6.3756   15.6325 C.ar      1 <0>        -0.0200
      6 C5         15.1074    5.1258   16.2079 C.ar      1 <0>        -0.1600
      7 C6         16.1107    4.2234   15.6117 C.2       1 <0>         0.5600
      8 O2         15.9781    3.8393   14.4656 O.2       1 <0>        -0.5100
      9 N1         17.1713    3.8203   16.3390 N.am      1 <0>        -0.7200
     10 C7         18.1644    2.9194   15.7488 C.3       1 <0>         0.1500
     11 C8         17.4840    1.6139   15.3308 C.3       1 <0>        -0.1500
     12 C9         18.5185    0.6883   14.6828 C.3       1 <0>         0.1200
     13 N2         19.6430    0.5121   15.6118 N.pl3     1 <0>        -1.0000
     14 S1         20.1479   -1.0036   16.0477 S.o2      1 <0>         2.6400
     15 O3         20.7469   -0.8202   17.3232 O.2       1 <0>        -0.9500
     16 O4         18.9928   -1.8164   15.8908 O.2       1 <0>        -0.9500
     17 C10        21.4030   -1.4357   14.8113 C.3       1 <0>        -0.6900
     18 C11        20.9342   -2.1782   13.5585 C.3       1 <0>        -0.1200
     19 C12        21.7369   -2.9179   14.6317 C.3       1 <0>        -0.1300
     20 C13        20.3115    1.7063   16.1465 C.3       1 <0>         0.1300
     21 C14        19.2569    2.6204   16.7780 C.3       1 <0>        -0.1400
     22 C15        14.3990    4.7361   17.3492 C.ar      1 <0>         0.0500
     23 Cl1        14.7009    3.1849   18.0676 Cl        1 <0>        -0.0100
     24 C16        13.4663    5.5813   17.9075 C.ar      1 <0>        -0.1400
     25 C17        13.2127    6.8280   17.3337 C.ar      1 <0>         0.1900
     26 N3         12.3285    7.8344   17.7083 N.am      1 <0>        -0.6600
     27 H1         14.2344    9.3102   15.8673 H         1 <0>         0.1300
     28 H2         12.9641    8.5776   14.8372 H         1 <0>         0.1300
     29 H3         15.3914    6.6844   14.7486 H         1 <0>         0.1400
     30 H4         17.2770    4.1266   17.2533 H         1 <0>         0.4000
     31 H5         18.6097    3.3930   14.8738 H         1 <0>         0.1000
     32 H6         17.0600    1.1272   16.2091 H         1 <0>         0.0700
     33 H7         16.6906    1.8301   14.6154 H         1 <0>         0.0800
     34 H8         18.8774    1.1340   13.7551 H         1 <0>         0.0800
     35 H9         18.0626   -0.2794   14.4733 H         1 <0>         0.1000
     36 H10        22.2165   -0.7191   14.6969 H         1 <0>         0.1600
     37 H11        19.8717   -2.4072   13.4771 H         1 <0>         0.1200
     38 H12        21.4396   -1.9506   12.6198 H         1 <0>         0.1100
     39 H13        22.7698   -3.1765   14.3988 H         1 <0>         0.1200
     40 H14        21.2024   -3.6335   15.2563 H         1 <0>         0.1100
     41 H15        20.8165    2.2350   15.3381 H         1 <0>         0.0800
     42 H16        21.0386    1.4103   16.9027 H         1 <0>         0.1000
     43 H17        19.7253    3.5530   17.0927 H         1 <0>         0.0900
     44 H18        18.8161    2.1248   17.6429 H         1 <0>         0.0700
     45 H19        12.9255    5.2764   18.7912 H         1 <0>         0.1500
     46 H20        11.7388    7.7763   18.4761 H         1 <0>         0.4200
@<TRIPOS>BOND
     1    1    2 2
     2    2   26 am
     3    2    3 1
     4    3    4 1
     5    3   27 1
     6    3   28 1
     7    4   25 ar
     8    4    5 ar
     9    5    6 ar
    10    5   29 1
    11    6    7 1
    12    6   22 ar
    13    7    8 2
    14    7    9 am
    15    9   10 1
    16    9   30 1
    17   10   21 1
    18   10   11 1
    19   10   31 1
    20   11   12 1
    21   11   32 1
    22   11   33 1
    23   12   13 1
    24   12   34 1
    25   12   35 1
    26   13   14 1
    27   13   20 1
    28   14   15 2
    29   14   16 2
    30   14   17 1
    31   17   19 1
    32   17   18 1
    33   17   36 1
    34   18   19 1
    35   18   37 1
    36   18   38 1
    37   19   39 1
    38   19   40 1
    39   20   21 1
    40   20   41 1
    41   20   42 1
    42   21   43 1
    43   21   44 1
    44   22   23 1
    45   22   24 ar
    46   24   25 ar
    47   24   45 1
    48   25   26 1
    49   26   46 1
##########                 Name:            smyd3_969
##########          Protonation:                 none
##########               SMILES:   CCCS(=O)(=O)N1CCC(NC(=O)C2=CC3=C(C=C2Cl)NC(=O)C3)CC1
##########            Long Name:   NO_LONG_NAME
##########          FlexRecCode: 1
##########               Number:                 2617
##########   Ligand Source File: /proj/zinc22/users/x_andlu/OGG1/revisions/docking/targets/smyd3/db2gen/split_par
##########                 Rank:                    1
##########               Setnum:                  107
##########             Matchnum:                   16
##########                Cloud:                    1
##########        Electrostatic:           -19.206524
##########                 Gist:             0.000000
##########        Van der Waals:           -36.604935
##########  Ligand Polar Desolv:             8.481236
########## Ligand Apolar Desolv:            -1.377578
##########      Internal Energy:             0.000000
##########      Receptor Energy:             0.000000
########## Receptor Desolvation:             0.000000
########## Receptor Hydrophobic:             0.000000
##########         Total Energy:           -48.707802
##########        Ligand Charge:             0.000000
##########            Arbitrary:    +999.9990
##########        Ligand Energy:             0.000000

@<TRIPOS>MOLECULE
smyd3_969      none
   48    50     0     0     0
SMALL
USER_CHARGES

@<TRIPOS>ATOM
      1 C1         20.8785   -3.7831   15.1841 C.3       1 <0>        -0.1500
      2 C2         21.8882   -2.6390   15.0740 C.3       1 <0>        -0.1200
      3 C3         21.1626   -1.3560   14.6636 C.3       1 <0>        -0.6300
      4 S1         19.9135   -0.9422   15.9124 S.o2      1 <0>         2.6000
      5 O1         18.7428   -1.7258   15.7254 O.2       1 <0>        -0.9500
      6 O2         20.5130   -0.8151   17.1944 O.2       1 <0>        -0.9500
      7 N1         19.4398    0.5976   15.5285 N.pl3     1 <0>        -1.0000
      8 C4         18.3250    0.8281   14.5997 C.3       1 <0>         0.1200
      9 C5         17.3036    1.7510   15.2818 C.3       1 <0>        -0.1500
     10 C6         18.0087    3.0275   15.7461 C.3       1 <0>         0.1500
     11 N2         17.0318    3.9269   16.3652 N.am      1 <0>        -0.7300
     12 C7         15.9812    4.3757   15.6503 C.2       1 <0>         0.5600
     13 O3         15.8441    4.0342   14.4913 O.2       1 <0>        -0.5100
     14 C8         14.9975    5.2813   16.2738 C.ar      1 <0>        -0.1600
     15 C9         14.7759    6.5555   15.7408 C.ar      1 <0>        -0.0200
     16 C10        13.8590    7.3904   16.3280 C.ar      1 <0>        -0.1500
     17 C11        13.1406    6.9899   17.4517 C.ar      1 <0>         0.1900
     18 C12        13.3621    5.7183   17.9834 C.ar      1 <0>        -0.1400
     19 C13        14.2753    4.8701   17.3992 C.ar      1 <0>         0.0500
     20 Cl1        14.5369    3.2884   18.0651 Cl        1 <0>        -0.0100
     21 N3         12.2797    8.0040   17.8579 N.am      1 <0>        -0.6600
     22 C14        12.3629    9.0909   17.0727 C.2       1 <0>         0.5300
     23 O4         11.7294   10.1177   17.1947 O.2       1 <0>        -0.4900
     24 C15        13.3959    8.7932   16.0068 C.3       1 <0>        -0.1100
     25 C16        19.0923    2.6715   16.7664 C.3       1 <0>        -0.1400
     26 C17        20.1303    1.7590   16.1056 C.3       1 <0>         0.1200
     27 H1         21.3955   -4.6971   15.4764 H         1 <0>         0.0600
     28 H2         20.1280   -3.5345   15.9344 H         1 <0>         0.0600
     29 H3         20.3926   -3.9331   14.2200 H         1 <0>         0.0600
     30 H4         22.6389   -2.8877   14.3237 H         1 <0>         0.0800
     31 H5         22.3740   -2.4891   16.0382 H         1 <0>         0.0800
     32 H6         21.8819   -0.5409   14.5852 H         1 <0>         0.1300
     33 H7         20.6767   -1.5059   13.6995 H         1 <0>         0.1300
     34 H8         18.6983    1.3001   13.6908 H         1 <0>         0.0800
     35 H9         17.8525   -0.1226   14.3526 H         1 <0>         0.1000
     36 H10        16.8678    1.2427   16.1418 H         1 <0>         0.0700
     37 H11        16.5164    2.0075   14.5727 H         1 <0>         0.0800
     38 H12        18.4654    3.5222   14.8889 H         1 <0>         0.1000
     39 H13        17.1413    4.1993   17.2896 H         1 <0>         0.4000
     40 H14        15.3247    6.8810   14.8695 H         1 <0>         0.1400
     41 H15        12.8110    5.3967   18.8549 H         1 <0>         0.1500
     42 H16        11.6860    7.9343   18.6218 H         1 <0>         0.4200
     43 H17        14.2275    9.4947   16.0737 H         1 <0>         0.1300
     44 H18        12.9435    8.8289   15.0157 H         1 <0>         0.1300
     45 H19        18.6395    2.1545   17.6124 H         1 <0>         0.0700
     46 H20        19.5781    3.5832   17.1141 H         1 <0>         0.0900
     47 H21        20.8494    1.4227   16.8524 H         1 <0>         0.1000
     48 H22        20.6498    2.3039   15.3173 H         1 <0>         0.0800
@<TRIPOS>BOND
     1    1    2 1
     2    1   27 1
     3    1   28 1
     4    1   29 1
     5    2    3 1
     6    2   30 1
     7    2   31 1
     8    3    4 1
     9    3   32 1
    10    3   33 1
    11    4    5 2
    12    4    6 2
    13    4    7 1
    14    7   26 1
    15    7    8 1
    16    8    9 1
    17    8   34 1
    18    8   35 1
    19    9   10 1
    20    9   36 1
    21    9   37 1
    22   10   11 1
    23   10   25 1
    24   10   38 1
    25   11   12 am
    26   11   39 1
    27   12   13 2
    28   12   14 1
    29   14   19 ar
    30   14   15 ar
    31   15   16 ar
    32   15   40 1
    33   16   24 1
    34   16   17 ar
    35   17   18 ar
    36   17   21 1
    37   18   19 ar
    38   18   41 1
    39   19   20 1
    40   21   22 am
    41   21   42 1
    42   22   23 2
    43   22   24 1
    44   24   43 1
    45   24   44 1
    46   25   26 1
    47   25   45 1
    48   25   46 1
    49   26   47 1
    50   26   48 1
##########                 Name:            smyd3_970
##########          Protonation:                 none
##########               SMILES:   CN(C)S(=O)(=O)N1CCC(NC(=O)C2=CC3=C(C=C2Cl)NC(=O)C3)CC1
##########            Long Name:   NO_LONG_NAME
##########          FlexRecCode: 1
##########               Number:                 2620
##########   Ligand Source File: /proj/zinc22/users/x_andlu/OGG1/revisions/docking/targets/smyd3/db2gen/split_par
##########                 Rank:                    1
##########               Setnum:                   29
##########             Matchnum:                    1
##########                Cloud:                    1
##########        Electrostatic:           -17.334787
##########                 Gist:             0.000000
##########        Van der Waals:           -36.800697
##########  Ligand Polar Desolv:             7.784478
########## Ligand Apolar Desolv:            -0.902188
##########      Internal Energy:             0.000000
##########      Receptor Energy:             0.000000
########## Receptor Desolvation:             0.000000
########## Receptor Hydrophobic:             0.000000
##########         Total Energy:           -47.253193
##########        Ligand Charge:             0.000000
##########            Arbitrary:    +999.9990
##########        Ligand Energy:             0.000000

@<TRIPOS>MOLECULE
smyd3_970      none
   47    49     0     0     0
SMALL
USER_CHARGES

@<TRIPOS>ATOM
      1 C1         21.6140   -1.4941   14.3217 C.3       1 <0>         0.0900
      2 N1         21.1905   -1.6359   15.7170 N.pl3     1 <0>        -1.0100
      3 C2         22.1709   -1.9839   16.7483 C.3       1 <0>         0.0800
      4 S1         19.6046   -1.3962   16.1293 S.o2      1 <0>         2.7800
      5 O1         18.8379   -2.2432   15.2844 O.2       1 <0>        -0.9700
      6 O2         19.5457   -1.4539   17.5478 O.2       1 <0>        -0.9700
      7 N2         19.2182    0.1581   15.7081 N.pl3     1 <0>        -1.0100
      8 C3         19.9375    1.2946   16.2992 C.3       1 <0>         0.1200
      9 C4         18.9243    2.2635   16.9062 C.3       1 <0>        -0.1400
     10 C5         17.8955    2.6546   15.8428 C.3       1 <0>         0.1500
     11 N3         16.9405    3.6070   16.4147 N.am      1 <0>        -0.7200
     12 C6         15.9383    4.0940   15.6564 C.2       1 <0>         0.5600
     13 O3         15.8268    3.7430   14.4977 O.2       1 <0>        -0.5100
     14 C7         14.9768    5.0532   16.2324 C.ar      1 <0>        -0.1600
     15 C8         14.8345    6.3286   15.6761 C.ar      1 <0>        -0.0200
     16 C9         13.9375    7.2136   16.2190 C.ar      1 <0>        -0.1500
     17 C10        13.1614    6.8629   17.3207 C.ar      1 <0>         0.1900
     18 C11        13.3035    5.5900   17.8760 C.ar      1 <0>        -0.1400
     19 C12        14.1961    4.6921   17.3359 C.ar      1 <0>         0.0500
     20 Cl1        14.3590    3.1094   18.0305 Cl        1 <0>        -0.0100
     21 N4         12.3352    7.9218   17.6829 N.am      1 <0>        -0.6600
     22 C13        12.4976    8.9924   16.8878 C.2       1 <0>         0.5300
     23 O4         11.9091   10.0492   16.9740 O.2       1 <0>        -0.4900
     24 C14        13.5528    8.6319   15.8638 C.3       1 <0>        -0.1100
     25 C15        17.1486    1.4056   15.3694 C.3       1 <0>        -0.1400
     26 C16        18.1454    0.4269   14.7408 C.3       1 <0>         0.1200
     27 H1         20.7534   -1.2345   13.7053 H         1 <0>         0.0800
     28 H2         22.3644   -0.7070   14.2480 H         1 <0>         0.0700
     29 H3         22.0394   -2.4354   13.9737 H         1 <0>         0.0600
     30 H4         21.6739   -2.0441   17.7166 H         1 <0>         0.0600
     31 H5         22.6217   -2.9475   16.5108 H         1 <0>         0.0800
     32 H6         22.9466   -1.2191   16.7851 H         1 <0>         0.0800
     33 H7         20.6102    0.9361   17.0782 H         1 <0>         0.1000
     34 H8         20.5104    1.8065   15.5260 H         1 <0>         0.0700
     35 H9         19.4396    3.1565   17.2597 H         1 <0>         0.0800
     36 H10        18.4181    1.7801   17.7418 H         1 <0>         0.0700
     37 H11        18.4053    3.1153   14.9967 H         1 <0>         0.1000
     38 H12        17.0293    3.8870   17.3392 H         1 <0>         0.4000
     39 H13        15.4287    6.6159   14.8212 H         1 <0>         0.1400
     40 H14        12.7073    5.3069   18.7308 H         1 <0>         0.1500
     41 H15        11.7120    7.8905   18.4255 H         1 <0>         0.4200
     42 H16        14.4135    9.2948   15.9523 H         1 <0>         0.1300
     43 H17        13.1383    8.6745   14.8566 H         1 <0>         0.1300
     44 H18        16.3999    1.6881   14.6291 H         1 <0>         0.0900
     45 H19        16.6590    0.9304   16.2195 H         1 <0>         0.0800
     46 H20        18.5693    0.8665   13.8379 H         1 <0>         0.0700
     47 H21        17.6377   -0.5045   14.4900 H         1 <0>         0.1000
@<TRIPOS>BOND
     1    1    2 1
     2    1   27 1
     3    1   28 1
     4    1   29 1
     5    2    3 1
     6    2    4 1
     7    3   30 1
     8    3   31 1
     9    3   32 1
    10    4    5 2
    11    4    6 2
    12    4    7 1
    13    7   26 1
    14    7    8 1
    15    8    9 1
    16    8   33 1
    17    8   34 1
    18    9   10 1
    19    9   35 1
    20    9   36 1
    21   10   11 1
    22   10   25 1
    23   10   37 1
    24   11   12 am
    25   11   38 1
    26   12   13 2
    27   12   14 1
    28   14   19 ar
    29   14   15 ar
    30   15   16 ar
    31   15   39 1
    32   16   24 1
    33   16   17 ar
    34   17   18 ar
    35   17   21 1
    36   18   19 ar
    37   18   40 1
    38   19   20 1
    39   21   22 am
    40   21   41 1
    41   22   23 2
    42   22   24 1
    43   24   42 1
    44   24   43 1
    45   25   26 1
    46   25   44 1
    47   25   45 1
    48   26   46 1
    49   26   47 1
##########                 Name:            smyd3_971
##########          Protonation:                 none
##########               SMILES:   O=C1CC2=C(C=C(Cl)C(C(=O)NC3CCN(C4=CC=CC=C4)CC3)=C2)N1
##########            Long Name:   NO_LONG_NAME
##########          FlexRecCode: 1
##########               Number:                 2621
##########   Ligand Source File: /proj/zinc22/users/x_andlu/OGG1/revisions/docking/targets/smyd3/db2gen/split_par
##########                 Rank:                    1
##########               Setnum:                   15
##########             Matchnum:                    1
##########                Cloud:                    1
##########        Electrostatic:           -13.756131
##########                 Gist:             0.000000
##########        Van der Waals:           -36.759808
##########  Ligand Polar Desolv:             6.284682
########## Ligand Apolar Desolv:            -2.266223
##########      Internal Energy:             0.000000
##########      Receptor Energy:             0.000000
########## Receptor Desolvation:             0.000000
########## Receptor Hydrophobic:             0.000000
##########         Total Energy:           -46.497478
##########        Ligand Charge:             0.000000
##########            Arbitrary:    +999.9990
##########        Ligand Energy:             0.000000

@<TRIPOS>MOLECULE
smyd3_971      none
   46    49     0     0     0
SMALL
USER_CHARGES

@<TRIPOS>ATOM
      1 O1         11.5420    9.8383   16.9430 O.2       1 <0>        -0.4900
      2 C1         12.2225    8.8379   16.8602 C.2       1 <0>         0.5300
      3 C2         13.2337    8.5256   15.7777 C.3       1 <0>        -0.1100
      4 C3         13.7774    7.1693   16.1657 C.ar      1 <0>        -0.1500
      5 C4         13.1175    6.8045   17.3363 C.ar      1 <0>         0.1900
      6 C5         13.4204    5.5804   17.9353 C.ar      1 <0>        -0.1400
      7 C6         14.3558    4.7432   17.3706 C.ar      1 <0>         0.0500
      8 Cl1        14.7189    3.2201   18.1204 Cl        1 <0>        -0.0100
      9 C7         15.0190    5.1187   16.1974 C.ar      1 <0>        -0.1500
     10 C8         16.0263    4.2253   15.5945 C.2       1 <0>         0.5600
     11 O2         15.8687    3.8068   14.4638 O.2       1 <0>        -0.5100
     12 N1         17.1214    3.8731   16.2969 N.am      1 <0>        -0.7200
     13 C9         18.1218    2.9860   15.6982 C.3       1 <0>         0.1500
     14 C10        19.2540    2.7419   16.6996 C.3       1 <0>        -0.1300
     15 C11        20.2650    1.7671   16.0915 C.3       1 <0>         0.0500
     16 N2         19.5929    0.5022   15.7676 N.pl3     1 <0>        -0.4900
     17 C12        20.5117   -0.4557   15.3330 C.ar      1 <0>         0.1100
     18 C13        21.8626   -0.1406   15.2568 C.ar      1 <0>        -0.1700
     19 C14        22.7690   -1.0917   14.8313 C.ar      1 <0>        -0.0900
     20 C15        22.3320   -2.3533   14.4711 C.ar      1 <0>        -0.1500
     21 C16        20.9874   -2.6686   14.5405 C.ar      1 <0>        -0.1000
     22 C17        20.0762   -1.7240   14.9704 C.ar      1 <0>        -0.1400
     23 C18        18.5325    0.7040   14.7720 C.3       1 <0>         0.0600
     24 C19        17.4700    1.6473   15.3406 C.3       1 <0>        -0.1300
     25 C20        14.7157    6.3452   15.5973 C.ar      1 <0>        -0.0200
     26 N3         12.2202    7.7989   17.7116 N.am      1 <0>        -0.6600
     27 H1         14.0303    9.2695   15.7727 H         1 <0>         0.1300
     28 H2         12.7478    8.4779   14.8031 H         1 <0>         0.1300
     29 H3         12.9152    5.2869   18.8436 H         1 <0>         0.1500
     30 H4         17.2472    4.2071   17.1989 H         1 <0>         0.4000
     31 H5         18.5256    3.4469   14.7966 H         1 <0>         0.0900
     32 H6         18.8443    2.3169   17.6159 H         1 <0>         0.0800
     33 H7         19.7496    3.6861   16.9255 H         1 <0>         0.0800
     34 H8         21.0653    1.5802   16.8075 H         1 <0>         0.0900
     35 H9         20.6842    2.1987   15.1827 H         1 <0>         0.0500
     36 H10        22.2040    0.8458   15.5338 H         1 <0>         0.1300
     37 H11        23.8198   -0.8486   14.7757 H         1 <0>         0.1200
     38 H12        23.0423   -3.0938   14.1343 H         1 <0>         0.1200
     39 H13        20.6493   -3.6549   14.2583 H         1 <0>         0.1200
     40 H14        19.0262   -1.9709   15.0241 H         1 <0>         0.1200
     41 H15        18.9601    1.1405   13.8694 H         1 <0>         0.0500
     42 H16        18.0745   -0.2549   14.5298 H         1 <0>         0.0900
     43 H17        16.6910    1.8094   14.5956 H         1 <0>         0.0800
     44 H18        17.0323    1.2052   16.2356 H         1 <0>         0.0800
     45 H19        15.2184    6.6427   14.6889 H         1 <0>         0.1400
     46 H20        11.6561    7.7476   18.4991 H         1 <0>         0.4200
@<TRIPOS>BOND
     1    1    2 2
     2    2   26 am
     3    2    3 1
     4    3    4 1
     5    3   27 1
     6    3   28 1
     7    4   25 ar
     8    4    5 ar
     9    5    6 ar
    10    5   26 1
    11    6    7 ar
    12    6   29 1
    13    7    8 1
    14    7    9 ar
    15    9   10 1
    16    9   25 ar
    17   10   11 2
    18   10   12 am
    19   12   13 1
    20   12   30 1
    21   13   24 1
    22   13   14 1
    23   13   31 1
    24   14   15 1
    25   14   32 1
    26   14   33 1
    27   15   16 1
    28   15   34 1
    29   15   35 1
    30   16   17 1
    31   16   23 1
    32   17   22 ar
    33   17   18 ar
    34   18   19 ar
    35   18   36 1
    36   19   20 ar
    37   19   37 1
    38   20   21 ar
    39   20   38 1
    40   21   22 ar
    41   21   39 1
    42   22   40 1
    43   23   24 1
    44   23   41 1
    45   23   42 1
    46   24   43 1
    47   24   44 1
    48   25   45 1
    49   26   46 1
##########                 Name:            smyd3_972
##########          Protonation:                 none
##########               SMILES:   O=C1CC2=C(C=C(Cl)C(C(=O)NC3CCN(C4=CC=[NH+]C=C4)CC3)=C2)N1
##########            Long Name:   NO_LONG_NAME
##########          FlexRecCode: 1
##########               Number:                 2624
##########   Ligand Source File: /proj/zinc22/users/x_andlu/OGG1/revisions/docking/targets/smyd3/db2gen/split_par
##########                 Rank:                    1
##########               Setnum:                   13
##########             Matchnum:                    7
##########                Cloud:                    1
##########        Electrostatic:           -24.471539
##########                 Gist:             0.000000
##########        Van der Waals:           -35.487350
##########  Ligand Polar Desolv:             8.687567
########## Ligand Apolar Desolv:            -1.929805
##########      Internal Energy:             0.000000
##########      Receptor Energy:             0.000000
########## Receptor Desolvation:             0.000000
########## Receptor Hydrophobic:             0.000000
##########         Total Energy:           -53.201130
##########        Ligand Charge:             1.000000
##########            Arbitrary:    +999.9990
##########        Ligand Energy:             0.000000

@<TRIPOS>MOLECULE
smyd3_972      none
   46    49     0     0     0
SMALL
USER_CHARGES

@<TRIPOS>ATOM
      1 O1         11.5006    9.7852   16.9699 O.2       1 <0>        -0.4800
      2 C1         12.2233    8.8152   16.8823 C.2       1 <0>         0.5300
      3 C2         13.2874    8.5789   15.8317 C.3       1 <0>        -0.1100
      4 C3         13.8695    7.2324   16.1973 C.ar      1 <0>        -0.1500
      5 C4         13.1798    6.8030   17.3280 C.ar      1 <0>         0.2000
      6 C5         13.5078    5.5718   17.8987 C.ar      1 <0>        -0.1400
      7 C6         14.4971    4.7910   17.3453 C.ar      1 <0>         0.0500
      8 Cl1        14.8913    3.2586   18.0596 Cl        1 <0>        -0.0100
      9 C7         15.1899    5.2314   16.2124 C.ar      1 <0>        -0.1600
     10 C8         16.2547    4.3984   15.6220 C.2       1 <0>         0.5700
     11 O2         16.1581    4.0126   14.4729 O.2       1 <0>        -0.5100
     12 N1         17.3346    4.0652   16.3561 N.am      1 <0>        -0.7300
     13 C9         18.3922    3.2382   15.7698 C.3       1 <0>         0.1400
     14 C10        17.8090    1.8881   15.3433 C.3       1 <0>        -0.1300
     15 C11        18.9297    1.0064   14.7879 C.3       1 <0>         0.0400
     16 N2         19.9577    0.8121   15.8183 N.pl3     1 <0>        -0.4700
     17 C12        20.9268   -0.0911   15.3920 C.ar      1 <0>         0.2400
     18 C13        20.5853   -1.4006   15.0547 C.ar      1 <0>        -0.1600
     19 C14        21.5754   -2.2645   14.6362 C.ar      1 <0>         0.1500
     20 N3         22.8308   -1.8658   14.5532 N.ar      1 <0>        -0.4700
     21 H1         23.5063   -2.4953   14.2560 H         1 <0>         0.4500
     22 C15        23.1940   -0.6352   14.8634 C.ar      1 <0>         0.1600
     23 C16        22.2647    0.2898   15.2904 C.ar      1 <0>        -0.2000
     24 C17        20.5655    2.0904   16.2097 C.3       1 <0>         0.0600
     25 C18        19.4936    3.0045   16.8075 C.3       1 <0>        -0.1400
     26 C19        14.8613    6.4649   15.6406 C.ar      1 <0>        -0.0200
     27 N4         12.2294    7.7486   17.6989 N.am      1 <0>        -0.6600
     28 H2         14.0533    9.3528   15.8827 H         1 <0>         0.1300
     29 H3         12.8421    8.5456   14.8374 H         1 <0>         0.1300
     30 H4         12.9799    5.2285   18.7762 H         1 <0>         0.1500
     31 H5         17.4117    4.3729   17.2728 H         1 <0>         0.4000
     32 H6         18.8122    3.7445   14.9006 H         1 <0>         0.1000
     33 H7         17.0538    2.0451   14.5732 H         1 <0>         0.0900
     34 H8         17.3547    1.3995   16.2052 H         1 <0>         0.0900
     35 H9         19.3744    1.4893   13.9177 H         1 <0>         0.0700
     36 H10        18.5201    0.0392   14.4966 H         1 <0>         0.1000
     37 H11        19.5600   -1.7336   15.1206 H         1 <0>         0.1800
     38 H12        21.3209   -3.2817   14.3773 H         1 <0>         0.2100
     39 H13        24.2322   -0.3491   14.7817 H         1 <0>         0.2100
     40 H14        22.5685    1.2951   15.5422 H         1 <0>         0.1800
     41 H15        21.3441    1.9104   16.9510 H         1 <0>         0.1000
     42 H16        21.0025    2.5683   15.3329 H         1 <0>         0.0700
     43 H17        19.9421    3.9590   17.0836 H         1 <0>         0.0900
     44 H18        19.0656    2.5340   17.6928 H         1 <0>         0.0800
     45 H19        15.3865    6.8121   14.7631 H         1 <0>         0.1400
     46 H20        11.6376    7.6490   18.4610 H         1 <0>         0.4200
@<TRIPOS>BOND
     1    1    2 2
     2    2   27 am
     3    2    3 1
     4    3    4 1
     5    3   28 1
     6    3   29 1
     7    4   26 ar
     8    4    5 ar
     9    5    6 ar
    10    5   27 1
    11    6    7 ar
    12    6   30 1
    13    7    8 1
    14    7    9 ar
    15    9   10 1
    16    9   26 ar
    17   10   11 2
    18   10   12 am
    19   12   13 1
    20   12   31 1
    21   13   25 1
    22   13   14 1
    23   13   32 1
    24   14   15 1
    25   14   33 1
    26   14   34 1
    27   15   16 1
    28   15   35 1
    29   15   36 1
    30   16   17 1
    31   16   24 1
    32   17   23 ar
    33   17   18 ar
    34   18   19 ar
    35   18   37 1
    36   19   20 ar
    37   19   38 1
    38   20   21 1
    39   20   22 ar
    40   22   23 ar
    41   22   39 1
    42   23   40 1
    43   24   25 1
    44   24   41 1
    45   24   42 1
    46   25   43 1
    47   25   44 1
    48   26   45 1
    49   27   46 1
##########                 Name:            smyd3_973
##########          Protonation:                 none
##########               SMILES:   O=C1CC2=C(C=C(Cl)C(C(=O)NC3CCN(C4=CN=CC=C4)CC3)=C2)N1
##########            Long Name:   NO_LONG_NAME
##########          FlexRecCode: 1
##########               Number:                 2627
##########   Ligand Source File: /proj/zinc22/users/x_andlu/OGG1/revisions/docking/targets/smyd3/db2gen/split_par
##########                 Rank:                    1
##########               Setnum:                   21
##########             Matchnum:                    9
##########                Cloud:                    1
##########        Electrostatic:           -15.340145
##########                 Gist:             0.000000
##########        Van der Waals:           -36.325886
##########  Ligand Polar Desolv:             6.645697
########## Ligand Apolar Desolv:            -1.831514
##########      Internal Energy:             0.000000
##########      Receptor Energy:             0.000000
########## Receptor Desolvation:             0.000000
########## Receptor Hydrophobic:             0.000000
##########         Total Energy:           -46.851845
##########        Ligand Charge:             0.000000
##########            Arbitrary:    +999.9990
##########        Ligand Energy:             0.000000

@<TRIPOS>MOLECULE
smyd3_973      none
   45    48     0     0     0
SMALL
USER_CHARGES

@<TRIPOS>ATOM
      1 O1         11.6819    9.8828   17.1018 O.2       1 <0>        -0.4900
      2 C1         12.3476    8.8765   16.9790 C.2       1 <0>         0.5300
      3 C2         13.4613    8.6518   15.9784 C.3       1 <0>        -0.1100
      4 C3         13.9341    7.2452   16.2675 C.ar      1 <0>        -0.1500
      5 C4         13.1471    6.7766   17.3163 C.ar      1 <0>         0.1900
      6 C5         13.3608    5.4859   17.8036 C.ar      1 <0>        -0.1400
      7 C6         14.3340    4.6861   17.2489 C.ar      1 <0>         0.0500
      8 Cl1        14.5857    3.0802   17.8585 Cl        1 <0>        -0.0100
      9 C7         15.1249    5.1656   16.1992 C.ar      1 <0>        -0.1600
     10 C8         16.1725    4.3117   15.6079 C.2       1 <0>         0.5600
     11 O2         16.1273    4.0232   14.4275 O.2       1 <0>        -0.5100
     12 N1         17.1799    3.8515   16.3759 N.am      1 <0>        -0.7200
     13 C9         18.2202    3.0035   15.7887 C.3       1 <0>         0.1500
     14 C10        17.5837    1.7324   15.2195 C.3       1 <0>        -0.1300
     15 C11        18.6815    0.8234   14.6624 C.3       1 <0>         0.0600
     16 N2         19.6264    0.4819   15.7332 N.pl3     1 <0>        -0.4800
     17 C12        20.5672   -0.4520   15.2919 C.ar      1 <0>         0.0600
     18 C13        21.9222   -0.1476   15.3058 C.ar      1 <0>         0.0500
     19 N3         22.8127   -1.0263   14.8901 N.ar      1 <0>        -0.4600
     20 C14        22.4598   -2.2174   14.4485 C.ar      1 <0>         0.0700
     21 C15        21.1299   -2.5935   14.4039 C.ar      1 <0>        -0.1400
     22 C16        20.1604   -1.7041   14.8368 C.ar      1 <0>        -0.1000
     23 C17        20.2853    1.6827   16.2629 C.3       1 <0>         0.0500
     24 C18        19.2353    2.6172   16.8680 C.3       1 <0>        -0.1300
     25 C19        14.9109    6.4588   15.7108 C.ar      1 <0>        -0.0200
     26 N4         12.2347    7.7519   17.7051 N.am      1 <0>        -0.6600
     27 H1         14.2684    9.3667   16.1380 H         1 <0>         0.1300
     28 H2         13.0803    8.7251   14.9598 H         1 <0>         0.1300
     29 H3         12.7568    5.1117   18.6170 H         1 <0>         0.1500
     30 H4         17.2160    4.0815   17.3176 H         1 <0>         0.4000
     31 H5         18.7262    3.5462   14.9903 H         1 <0>         0.0900
     32 H6         17.0450    1.2099   16.0100 H         1 <0>         0.0800
     33 H7         16.8912    1.9984   14.4210 H         1 <0>         0.0800
     34 H8         19.2108    1.3415   13.8626 H         1 <0>         0.0500
     35 H9         18.2329   -0.0889   14.2692 H         1 <0>         0.0900
     36 H10        22.2498    0.8182   15.6610 H         1 <0>         0.1600
     37 H11        23.2200   -2.9091   14.1166 H         1 <0>         0.1600
     38 H12        20.8506   -3.5713   14.0399 H         1 <0>         0.1400
     39 H13        19.1146   -1.9731   14.8175 H         1 <0>         0.1400
     40 H14        20.8070    2.1966   15.4558 H         1 <0>         0.0500
     41 H15        21.0014    1.3943   17.0325 H         1 <0>         0.0900
     42 H16        19.7228    3.5154   17.2471 H         1 <0>         0.0800
     43 H17        18.7225    2.1093   17.6848 H         1 <0>         0.0800
     44 H18        15.5127    6.8370   14.8976 H         1 <0>         0.1400
     45 H19        11.5897    7.6333   18.4198 H         1 <0>         0.4200
@<TRIPOS>BOND
     1    1    2 2
     2    2   26 am
     3    2    3 1
     4    3    4 1
     5    3   27 1
     6    3   28 1
     7    4   25 ar
     8    4    5 ar
     9    5    6 ar
    10    5   26 1
    11    6    7 ar
    12    6   29 1
    13    7    8 1
    14    7    9 ar
    15    9   10 1
    16    9   25 ar
    17   10   11 2
    18   10   12 am
    19   12   13 1
    20   12   30 1
    21   13   24 1
    22   13   14 1
    23   13   31 1
    24   14   15 1
    25   14   32 1
    26   14   33 1
    27   15   16 1
    28   15   34 1
    29   15   35 1
    30   16   17 1
    31   16   23 1
    32   17   22 ar
    33   17   18 ar
    34   18   19 ar
    35   18   36 1
    36   19   20 ar
    37   20   21 ar
    38   20   37 1
    39   21   22 ar
    40   21   38 1
    41   22   39 1
    42   23   24 1
    43   23   40 1
    44   23   41 1
    45   24   42 1
    46   24   43 1
    47   25   44 1
    48   26   45 1
##########                 Name:            smyd3_974
##########          Protonation:                 none
##########               SMILES:   O=C1CC2=C(C=C(Cl)C(C(=O)NC3CCN(C4=CC=CC=[NH+]4)CC3)=C2)N1
##########            Long Name:   NO_LONG_NAME
##########          FlexRecCode: 1
##########               Number:                 2630
##########   Ligand Source File: /proj/zinc22/users/x_andlu/OGG1/revisions/docking/targets/smyd3/db2gen/split_par
##########                 Rank:                    1
##########               Setnum:                   26
##########             Matchnum:                    7
##########                Cloud:                    1
##########        Electrostatic:           -26.442915
##########                 Gist:             0.000000
##########        Van der Waals:           -35.926170
##########  Ligand Polar Desolv:            10.004257
########## Ligand Apolar Desolv:            -2.284358
##########      Internal Energy:             0.000000
##########      Receptor Energy:             0.000000
########## Receptor Desolvation:             0.000000
########## Receptor Hydrophobic:             0.000000
##########         Total Energy:           -54.649189
##########        Ligand Charge:             1.000000
##########            Arbitrary:    +999.9990
##########        Ligand Energy:             0.000000

@<TRIPOS>MOLECULE
smyd3_974      none
   46    49     0     0     0
SMALL
USER_CHARGES

@<TRIPOS>ATOM
      1 O1         11.6883   10.0466   17.2341 O.2       1 <0>        -0.4800
      2 C1         12.3324    9.0279   17.0991 C.2       1 <0>         0.5300
      3 C2         13.3674    8.7539   16.0287 C.3       1 <0>        -0.1100
      4 C3         13.8458    7.3523   16.3331 C.ar      1 <0>        -0.1500
      5 C4         13.1330    6.9311   17.4526 C.ar      1 <0>         0.2000
      6 C5         13.3686    5.6557   17.9692 C.ar      1 <0>        -0.1400
      7 C6         14.2914    4.8249   17.3751 C.ar      1 <0>         0.0500
      8 Cl1        14.5710    3.2386   18.0225 Cl        1 <0>        -0.0100
      9 C7         15.0077    5.2569   16.2536 C.ar      1 <0>        -0.1600
     10 C8         16.0003    4.3693   15.6186 C.2       1 <0>         0.5700
     11 O2         15.8654    4.0397   14.4559 O.2       1 <0>        -0.5100
     12 N1         17.0537    3.9193   16.3287 N.am      1 <0>        -0.7300
     13 C9         18.0363    3.0332   15.6998 C.3       1 <0>         0.1400
     14 C10        17.3418    1.7536   15.2257 C.3       1 <0>        -0.1300
     15 C11        18.3830    0.8065   14.6248 C.3       1 <0>         0.0500
     16 N2         19.3982    0.4876   15.6367 N.pl3     1 <0>        -0.4900
     17 C12        20.2864   -0.4725   15.1660 C.ar      1 <0>         0.3600
     18 C13        19.8125   -1.7261   14.7932 C.ar      1 <0>        -0.1800
     19 C14        20.7068   -2.6708   14.3224 C.ar      1 <0>         0.0300
     20 C15        22.0512   -2.3318   14.2489 C.ar      1 <0>        -0.1500
     21 C16        22.4528   -1.0701   14.6403 C.ar      1 <0>         0.1500
     22 N3         21.5769   -0.1875   15.0816 N.ar      1 <0>        -0.4700
     23 H1         21.8857    0.6919   15.3503 H         1 <0>         0.4500
     24 C17        20.1111    1.6952   16.0725 C.3       1 <0>         0.0500
     25 C18        19.1215    2.6688   16.7167 C.3       1 <0>        -0.1300
     26 C19        14.7714    6.5345   15.7356 C.ar      1 <0>        -0.0200
     27 N4         12.2616    7.9311   17.8714 N.am      1 <0>        -0.6600
     28 H2         14.1913    9.4635   16.1032 H         1 <0>         0.1300
     29 H3         12.9136    8.7962   15.0386 H         1 <0>         0.1300
     30 H4         12.8218    5.3180   18.8372 H         1 <0>         0.1500
     31 H5         17.1614    4.1822   17.2561 H         1 <0>         0.4000
     32 H6         18.4906    3.5393   14.8478 H         1 <0>         0.1000
     33 H7         16.8545    1.2691   16.0719 H         1 <0>         0.0900
     34 H8         16.5971    2.0024   14.4697 H         1 <0>         0.1000
     35 H9         18.8600    1.2863   13.7703 H         1 <0>         0.0800
     36 H10        17.8938   -0.1116   14.2993 H         1 <0>         0.0900
     37 H11        18.7603   -1.9576   14.8672 H         1 <0>         0.1900
     38 H12        20.3676   -3.6512   14.0227 H         1 <0>         0.1800
     39 H13        22.7754   -3.0476   13.8891 H         1 <0>         0.1900
     40 H14        23.4976   -0.8022   14.5848 H         1 <0>         0.2100
     41 H15        20.5801    2.1708   15.2112 H         1 <0>         0.0800
     42 H16        20.8770    1.4224   16.7986 H         1 <0>         0.1100
     43 H17        19.6483    3.5716   17.0259 H         1 <0>         0.1000
     44 H18        18.6623    2.1994   17.5866 H         1 <0>         0.0900
     45 H19        15.3157    6.8761   14.8676 H         1 <0>         0.1400
     46 H20        11.6695    7.8460   18.6350 H         1 <0>         0.4200
@<TRIPOS>BOND
     1    1    2 2
     2    2   27 am
     3    2    3 1
     4    3    4 1
     5    3   28 1
     6    3   29 1
     7    4   26 ar
     8    4    5 ar
     9    5    6 ar
    10    5   27 1
    11    6    7 ar
    12    6   30 1
    13    7    8 1
    14    7    9 ar
    15    9   10 1
    16    9   26 ar
    17   10   11 2
    18   10   12 am
    19   12   13 1
    20   12   31 1
    21   13   25 1
    22   13   14 1
    23   13   32 1
    24   14   15 1
    25   14   33 1
    26   14   34 1
    27   15   16 1
    28   15   35 1
    29   15   36 1
    30   16   17 1
    31   16   24 1
    32   17   22 ar
    33   17   18 ar
    34   18   19 ar
    35   18   37 1
    36   19   20 ar
    37   19   38 1
    38   20   21 ar
    39   20   39 1
    40   21   22 ar
    41   21   40 1
    42   22   23 1
    43   24   25 1
    44   24   41 1
    45   24   42 1
    46   25   43 1
    47   25   44 1
    48   26   45 1
    49   27   46 1
##########                 Name:            smyd3_975
##########          Protonation:                 none
##########               SMILES:   O=C1CC2=C(C=C(Cl)C(C(=O)NC3CCN(C4=NC=CC=N4)CC3)=C2)N1
##########            Long Name:   NO_LONG_NAME
##########          FlexRecCode: 1
##########               Number:                 2637
##########   Ligand Source File: /proj/zinc22/users/x_andlu/OGG1/revisions/docking/targets/smyd3/db2gen/split_par
##########                 Rank:                    1
##########               Setnum:                    4
##########             Matchnum:                   13
##########                Cloud:                    1
##########        Electrostatic:           -15.709425
##########                 Gist:             0.000000
##########        Van der Waals:           -33.826843
##########  Ligand Polar Desolv:             7.111461
########## Ligand Apolar Desolv:            -2.057752
##########      Internal Energy:             0.000000
##########      Receptor Energy:             0.000000
########## Receptor Desolvation:             0.000000
########## Receptor Hydrophobic:             0.000000
##########         Total Energy:           -44.482559
##########        Ligand Charge:             0.000000
##########            Arbitrary:    +999.9990
##########        Ligand Energy:             0.000000

@<TRIPOS>MOLECULE
smyd3_975      none
   44    47     0     0     0
SMALL
USER_CHARGES

@<TRIPOS>ATOM
      1 O1         11.8647   10.3428   17.4390 O.2       1 <0>        -0.4900
      2 C1         12.4718    9.3136   17.2314 C.2       1 <0>         0.5300
      3 C2         13.6640    9.1426   16.3143 C.3       1 <0>        -0.1100
      4 C3         14.0116    7.6764   16.4361 C.ar      1 <0>        -0.1500
      5 C4         13.0931    7.1303   17.3287 C.ar      1 <0>         0.1900
      6 C5         13.1708    5.7714   17.6391 C.ar      1 <0>        -0.1400
      7 C6         14.1405    4.9817   17.0641 C.ar      1 <0>         0.0500
      8 Cl1        14.2229    3.2917   17.4523 Cl        1 <0>        -0.0100
      9 C7         15.0638    5.5384   16.1725 C.ar      1 <0>        -0.1500
     10 C8         16.1077    4.6946   15.5604 C.2       1 <0>         0.5600
     11 O2         16.1637    4.5780   14.3513 O.2       1 <0>        -0.5100
     12 N1         16.9994    4.0530   16.3411 N.am      1 <0>        -0.7200
     13 C9         18.0360    3.2151   15.7332 C.3       1 <0>         0.1400
     14 C10        19.2816    3.2152   16.6238 C.3       1 <0>        -0.1300
     15 C11        20.3381    2.2906   16.0149 C.3       1 <0>         0.0700
     16 N2         19.7946    0.9311   15.9030 N.pl3     1 <0>        -0.4600
     17 C12        20.7663    0.0419   15.4777 C.ar      1 <0>         0.4900
     18 N3         22.0331    0.2690   15.7923 N.ar      1 <0>        -0.5500
     19 C13        22.9855   -0.5639   15.4063 C.ar      1 <0>         0.1700
     20 C14        22.6457   -1.6780   14.6550 C.ar      1 <0>        -0.2600
     21 C15        21.3117   -1.8824   14.3389 C.ar      1 <0>         0.1800
     22 N4         20.4081   -1.0134   14.7610 N.ar      1 <0>        -0.5300
     23 C16        18.6258    0.8979   15.0146 C.3       1 <0>         0.0700
     24 C17        17.5181    1.7809   15.5936 C.3       1 <0>        -0.1300
     25 C18        14.9861    6.9000   15.8614 C.ar      1 <0>        -0.0200
     26 N5         12.2120    8.1114   17.7715 N.am      1 <0>        -0.6600
     27 H1         14.4961    9.7618   16.6498 H         1 <0>         0.1300
     28 H2         13.3943    9.3875   15.2869 H         1 <0>         0.1300
     29 H3         12.4640    5.3368   18.3304 H         1 <0>         0.1500
     30 H4         16.9548    4.1460   17.3057 H         1 <0>         0.4000
     31 H5         18.2919    3.6074   14.7489 H         1 <0>         0.0900
     32 H6         19.0170    2.8595   17.6196 H         1 <0>         0.0800
     33 H7         19.6799    4.2276   16.6923 H         1 <0>         0.0800
     34 H8         20.6123    2.6548   15.0248 H         1 <0>         0.0600
     35 H9         21.2208    2.2772   16.6543 H         1 <0>         0.1000
     36 H10        24.0158   -0.3760   15.6700 H         1 <0>         0.1700
     37 H11        23.4038   -2.3717   14.3228 H         1 <0>         0.1500
     38 H12        21.0137   -2.7404   13.7548 H         1 <0>         0.1700
     39 H13        18.9080    1.2685   14.0292 H         1 <0>         0.0500
     40 H14        18.2650   -0.1269   14.9273 H         1 <0>         0.1000
     41 H15        16.6566    1.7685   14.9261 H         1 <0>         0.0800
     42 H16        17.2253    1.4022   16.5728 H         1 <0>         0.0800
     43 H17        15.6909    7.3386   15.1706 H         1 <0>         0.1400
     44 H18        11.4913    7.9460   18.3992 H         1 <0>         0.4200
@<TRIPOS>BOND
     1    1    2 2
     2    2   26 am
     3    2    3 1
     4    3    4 1
     5    3   27 1
     6    3   28 1
     7    4   25 ar
     8    4    5 ar
     9    5    6 ar
    10    5   26 1
    11    6    7 ar
    12    6   29 1
    13    7    8 1
    14    7    9 ar
    15    9   10 1
    16    9   25 ar
    17   10   11 2
    18   10   12 am
    19   12   13 1
    20   12   30 1
    21   13   24 1
    22   13   14 1
    23   13   31 1
    24   14   15 1
    25   14   32 1
    26   14   33 1
    27   15   16 1
    28   15   34 1
    29   15   35 1
    30   16   17 1
    31   16   23 1
    32   17   22 ar
    33   17   18 ar
    34   18   19 ar
    35   19   20 ar
    36   19   36 1
    37   20   21 ar
    38   20   37 1
    39   21   22 ar
    40   21   38 1
    41   23   24 1
    42   23   39 1
    43   23   40 1
    44   24   41 1
    45   24   42 1
    46   25   43 1
    47   26   44 1
##########                 Name:            smyd3_976
##########          Protonation:                 none
##########               SMILES:   O=C1CC2=C(C=C(Cl)C(C(=O)NC3CCN(C4=NC=CN=C4)CC3)=C2)N1
##########            Long Name:   NO_LONG_NAME
##########          FlexRecCode: 1
##########               Number:                 2639
##########   Ligand Source File: /proj/zinc22/users/x_andlu/OGG1/revisions/docking/targets/smyd3/db2gen/split_par
##########                 Rank:                    1
##########               Setnum:                   11
##########             Matchnum:                   19
##########                Cloud:                    1
##########        Electrostatic:           -12.807140
##########                 Gist:             0.000000
##########        Van der Waals:           -36.648373
##########  Ligand Polar Desolv:             6.859609
########## Ligand Apolar Desolv:            -1.547412
##########      Internal Energy:             0.000000
##########      Receptor Energy:             0.000000
########## Receptor Desolvation:             0.000000
########## Receptor Hydrophobic:             0.000000
##########         Total Energy:           -44.143318
##########        Ligand Charge:             0.000000
##########            Arbitrary:    +999.9990
##########        Ligand Energy:             0.000000

@<TRIPOS>MOLECULE
smyd3_976      none
   44    47     0     0     0
SMALL
USER_CHARGES

@<TRIPOS>ATOM
      1 O1         12.1152   10.3096   17.7343 O.2       1 <0>        -0.4900
      2 C1         12.6676    9.2516   17.5188 C.2       1 <0>         0.5300
      3 C2         13.6232    8.9510   16.3838 C.3       1 <0>        -0.1100
      4 C3         14.0003    7.5026   16.5974 C.ar      1 <0>        -0.1500
      5 C4         13.3112    7.0831   17.7322 C.ar      1 <0>         0.1900
      6 C5         13.4673    5.7688   18.1762 C.ar      1 <0>        -0.1400
      7 C6         14.2882    4.8983   17.4956 C.ar      1 <0>         0.0500
      8 Cl1        14.4689    3.2641   18.0529 Cl        1 <0>        -0.0100
      9 C7         14.9820    5.3284   16.3593 C.ar      1 <0>        -0.1600
     10 C8         15.8669    4.3985   15.6324 C.2       1 <0>         0.5600
     11 O2         15.6493    4.1398   14.4645 O.2       1 <0>        -0.5100
     12 N1         16.9167    3.8357   16.2630 N.am      1 <0>        -0.7200
     13 C9         17.7955    2.9122   15.5411 C.3       1 <0>         0.1400
     14 C10        17.2708    1.4818   15.6938 C.3       1 <0>        -0.1300
     15 C11        18.2257    0.5154   14.9893 C.3       1 <0>         0.0600
     16 N2         19.5648    0.6304   15.5808 N.pl3     1 <0>        -0.4700
     17 C12        20.4258   -0.3253   15.0541 C.ar      1 <0>         0.2700
     18 N3         19.9895   -1.1819   14.1399 N.ar      1 <0>        -0.4800
     19 C13        20.8128   -2.0871   13.6381 C.ar      1 <0>         0.0800
     20 C14        22.1233   -2.1479   14.0715 C.ar      1 <0>         0.0100
     21 N4         22.5614   -1.2991   14.9865 N.ar      1 <0>        -0.4200
     22 C15        21.7480   -0.3901   15.4888 C.ar      1 <0>         0.0400
     23 C16        20.1089    1.9829   15.4045 C.3       1 <0>         0.0700
     24 C17        19.2103    2.9932   16.1213 C.3       1 <0>        -0.1300
     25 C18        14.8256    6.6454   15.9144 C.ar      1 <0>        -0.0200
     26 N5         12.5457    8.1264   18.2424 N.am      1 <0>        -0.6600
     27 H1         14.5047    9.5888   16.4475 H         1 <0>         0.1300
     28 H2         13.1264    9.0788   15.4220 H         1 <0>         0.1300
     29 H3         12.9382    5.4321   19.0555 H         1 <0>         0.1500
     30 H4         17.0928    4.0453   17.1935 H         1 <0>         0.4000
     31 H5         17.8189    3.1818   14.4852 H         1 <0>         0.0900
     32 H6         17.2106    1.2273   16.7520 H         1 <0>         0.0800
     33 H7         16.2807    1.4075   15.2441 H         1 <0>         0.0800
     34 H8         18.2748    0.7620   13.9288 H         1 <0>         0.0500
     35 H9         17.8626   -0.5053   15.1084 H         1 <0>         0.0900
     36 H10        20.4592   -2.7824   12.8912 H         1 <0>         0.1700
     37 H11        22.7918   -2.8909   13.6622 H         1 <0>         0.1700
     38 H12        22.1064    0.3028   16.2357 H         1 <0>         0.1700
     39 H13        20.1491    2.2226   14.3419 H         1 <0>         0.0600
     40 H14        21.1135    2.0278   15.8251 H         1 <0>         0.0900
     41 H15        19.6058    3.9986   15.9771 H         1 <0>         0.0800
     42 H16        19.1806    2.7624   17.1861 H         1 <0>         0.0800
     43 H17        15.3528    6.9862   15.0356 H         1 <0>         0.1400
     44 H18        11.9866    8.0499   19.0313 H         1 <0>         0.4200
@<TRIPOS>BOND
     1    1    2 2
     2    2   26 am
     3    2    3 1
     4    3    4 1
     5    3   27 1
     6    3   28 1
     7    4   25 ar
     8    4    5 ar
     9    5    6 ar
    10    5   26 1
    11    6    7 ar
    12    6   29 1
    13    7    8 1
    14    7    9 ar
    15    9   10 1
    16    9   25 ar
    17   10   11 2
    18   10   12 am
    19   12   13 1
    20   12   30 1
    21   13   24 1
    22   13   14 1
    23   13   31 1
    24   14   15 1
    25   14   32 1
    26   14   33 1
    27   15   16 1
    28   15   34 1
    29   15   35 1
    30   16   17 1
    31   16   23 1
    32   17   22 ar
    33   17   18 ar
    34   18   19 ar
    35   19   20 ar
    36   19   36 1
    37   20   21 ar
    38   20   37 1
    39   21   22 ar
    40   22   38 1
    41   23   24 1
    42   23   39 1
    43   23   40 1
    44   24   41 1
    45   24   42 1
    46   25   43 1
    47   26   44 1
##########                 Name:            smyd3_977
##########          Protonation:                 none
##########               SMILES:   O=C1CC2=C(C=C(Cl)C(C(=O)NC3CCN(C4=NC=NC=C4)CC3)=C2)N1
##########            Long Name:   NO_LONG_NAME
##########          FlexRecCode: 1
##########               Number:                 2642
##########   Ligand Source File: /proj/zinc22/users/x_andlu/OGG1/revisions/docking/targets/smyd3/db2gen/split_par
##########                 Rank:                    1
##########               Setnum:                   17
##########             Matchnum:                    2
##########                Cloud:                    1
##########        Electrostatic:           -13.987818
##########                 Gist:             0.000000
##########        Van der Waals:           -36.953671
##########  Ligand Polar Desolv:             6.869250
########## Ligand Apolar Desolv:            -2.094325
##########      Internal Energy:             0.000000
##########      Receptor Energy:             0.000000
########## Receptor Desolvation:             0.000000
########## Receptor Hydrophobic:             0.000000
##########         Total Energy:           -46.166565
##########        Ligand Charge:             0.000000
##########            Arbitrary:    +999.9990
##########        Ligand Energy:             0.000000

@<TRIPOS>MOLECULE
smyd3_977      none
   44    47     0     0     0
SMALL
USER_CHARGES

@<TRIPOS>ATOM
      1 O1         11.7100   10.0853   16.6727 O.2       1 <0>        -0.4900
      2 C1         12.3039    9.0280   16.6819 C.2       1 <0>         0.5300
      3 C2         13.2788    8.5352   15.6337 C.3       1 <0>        -0.1100
      4 C3         13.7094    7.1788   16.1438 C.ar      1 <0>        -0.1500
      5 C4         13.0283    6.9779   17.3416 C.ar      1 <0>         0.1900
      6 C5         13.2312    5.7917   18.0493 C.ar      1 <0>        -0.1400
      7 C6         14.0897    4.8314   17.5642 C.ar      1 <0>         0.0500
      8 Cl1        14.3284    3.3572   18.4494 Cl        1 <0>        -0.0100
      9 C7         14.7751    5.0424   16.3630 C.ar      1 <0>        -0.1600
     10 C8         15.7003    4.0167   15.8450 C.2       1 <0>         0.5600
     11 O2         15.5013    3.5126   14.7565 O.2       1 <0>        -0.5100
     12 N1         16.7660    3.6385   16.5782 N.am      1 <0>        -0.7200
     13 C9         17.6848    2.6200   16.0638 C.3       1 <0>         0.1400
     14 C10        17.2134    1.2333   16.5103 C.3       1 <0>        -0.1300
     15 C11        18.2096    0.1793   16.0217 C.3       1 <0>         0.0700
     16 N2         19.5388    0.4662   16.5762 N.pl3     1 <0>        -0.4700
     17 C12        20.4364   -0.5407   16.2603 C.ar      1 <0>         0.3600
     18 N3         21.0426   -1.2312   17.2214 N.ar      1 <0>        -0.5600
     19 C13        21.9011   -2.1858   16.9243 C.ar      1 <0>         0.3200
     20 N4         22.1887   -2.4985   15.6771 N.ar      1 <0>        -0.5400
     21 C14        21.6207   -1.8588   14.6642 C.ar      1 <0>         0.1600
     22 C15        20.7147   -0.8505   14.9273 C.ar      1 <0>        -0.2400
     23 C16        20.0327    1.7727   16.1227 C.3       1 <0>         0.0600
     24 C17        19.0908    2.8742   16.6143 C.3       1 <0>        -0.1300
     25 C18        14.5719    6.2309   15.6538 C.ar      1 <0>        -0.0200
     26 N5         12.2196    8.0739   17.6239 N.am      1 <0>        -0.6600
     27 H1         14.1349    9.2061   15.5627 H         1 <0>         0.1300
     28 H2         12.7848    8.4407   14.6667 H         1 <0>         0.1300
     29 H3         12.7087    5.6250   18.9797 H         1 <0>         0.1500
     30 H4         16.9247    4.0407   17.4465 H         1 <0>         0.4000
     31 H5         17.7064    2.6642   14.9749 H         1 <0>         0.0900
     32 H6         16.2304    1.0289   16.0861 H         1 <0>         0.0800
     33 H7         17.1545    1.2018   17.5983 H         1 <0>         0.0800
     34 H8         18.2577    0.2020   14.9331 H         1 <0>         0.0600
     35 H9         17.8844   -0.8077   16.3503 H         1 <0>         0.1000
     36 H10        22.3822   -2.7272   17.7255 H         1 <0>         0.2000
     37 H11        21.8640   -2.1229   13.6457 H         1 <0>         0.1700
     38 H12        20.2368   -0.3119   14.1223 H         1 <0>         0.1500
     39 H13        21.0314    1.9430   16.5246 H         1 <0>         0.0900
     40 H14        20.0722    1.7880   15.0335 H         1 <0>         0.0500
     41 H15        19.4490    3.8424   16.2644 H         1 <0>         0.0800
     42 H16        19.0615    2.8685   17.7038 H         1 <0>         0.0800
     43 H17        15.0922    6.4018   14.7229 H         1 <0>         0.1400
     44 H18        11.6580    8.1415   18.4119 H         1 <0>         0.4200
@<TRIPOS>BOND
     1    1    2 2
     2    2   26 am
     3    2    3 1
     4    3    4 1
     5    3   27 1
     6    3   28 1
     7    4   25 ar
     8    4    5 ar
     9    5    6 ar
    10    5   26 1
    11    6    7 ar
    12    6   29 1
    13    7    8 1
    14    7    9 ar
    15    9   10 1
    16    9   25 ar
    17   10   11 2
    18   10   12 am
    19   12   13 1
    20   12   30 1
    21   13   24 1
    22   13   14 1
    23   13   31 1
    24   14   15 1
    25   14   32 1
    26   14   33 1
    27   15   16 1
    28   15   34 1
    29   15   35 1
    30   16   17 1
    31   16   23 1
    32   17   22 ar
    33   17   18 ar
    34   18   19 ar
    35   19   20 ar
    36   19   36 1
    37   20   21 ar
    38   21   22 ar
    39   21   37 1
    40   22   38 1
    41   23   24 1
    42   23   39 1
    43   23   40 1
    44   24   41 1
    45   24   42 1
    46   25   43 1
    47   26   44 1
##########                 Name:            smyd3_978
##########          Protonation:                 none
##########               SMILES:   O=C1CC2=C(C=C(Cl)C(C(=O)NC3CCN(C4=NN=CC=C4)CC3)=C2)N1
##########            Long Name:   NO_LONG_NAME
##########          FlexRecCode: 1
##########               Number:                 2645
##########   Ligand Source File: /proj/zinc22/users/x_andlu/OGG1/revisions/docking/targets/smyd3/db2gen/split_par
##########                 Rank:                    1
##########               Setnum:                   17
##########             Matchnum:                    4
##########                Cloud:                    1
##########        Electrostatic:           -13.292480
##########                 Gist:             0.000000
##########        Van der Waals:           -36.578911
##########  Ligand Polar Desolv:             7.649693
########## Ligand Apolar Desolv:            -1.606551
##########      Internal Energy:             0.000000
##########      Receptor Energy:             0.000000
########## Receptor Desolvation:             0.000000
########## Receptor Hydrophobic:             0.000000
##########         Total Energy:           -43.828251
##########        Ligand Charge:             0.000000
##########            Arbitrary:    +999.9990
##########        Ligand Energy:             0.000000

@<TRIPOS>MOLECULE
smyd3_978      none
   44    47     0     0     0
SMALL
USER_CHARGES

@<TRIPOS>ATOM
      1 O1         11.6792   10.1042   16.6926 O.2       1 <0>        -0.4900
      2 C1         12.2703    9.0452   16.6935 C.2       1 <0>         0.5300
      3 C2         13.2479    8.5603   15.6443 C.3       1 <0>        -0.1100
      4 C3         13.6728    7.1976   16.1424 C.ar      1 <0>        -0.1500
      5 C4         12.9865    6.9868   17.3355 C.ar      1 <0>         0.1900
      6 C5         13.1834    5.7931   18.0321 C.ar      1 <0>        -0.1400
      7 C6         14.0413    4.8352   17.5409 C.ar      1 <0>         0.0500
      8 Cl1        14.2726    3.3516   18.4122 Cl        1 <0>        -0.0100
      9 C7         14.7319    5.0563   16.3443 C.ar      1 <0>        -0.1600
     10 C8         15.6564    4.0334   15.8198 C.2       1 <0>         0.5600
     11 O2         15.4604    3.5405   14.7257 O.2       1 <0>        -0.5100
     12 N1         16.7182    3.6451   16.5534 N.am      1 <0>        -0.7200
     13 C9         17.6363    2.6293   16.0324 C.3       1 <0>         0.1400
     14 C10        17.1600    1.2395   16.4641 C.3       1 <0>        -0.1300
     15 C11        18.1553    0.1878   15.9690 C.3       1 <0>         0.0600
     16 N2         19.4833    0.4661   16.5308 N.pl3     1 <0>        -0.4700
     17 C12        20.3829   -0.5437   16.2073 C.ar      1 <0>         0.2500
     18 N3         20.9777   -1.2376   17.1664 N.ar      1 <0>        -0.2800
     19 N4         21.8136   -2.1770   16.9096 N.ar      1 <0>        -0.2200
     20 C13        22.1365   -2.5146   15.6773 C.ar      1 <0>         0.0200
     21 C14        21.5670   -1.8460   14.6023 C.ar      1 <0>        -0.1000
     22 C15        20.6588   -0.8347   14.8715 C.ar      1 <0>        -0.1300
     23 C16        19.9819    1.7756   16.0915 C.3       1 <0>         0.0700
     24 C17        19.0411    2.8748   16.5902 C.3       1 <0>        -0.1300
     25 C18        14.5347    6.2524   15.6463 C.ar      1 <0>        -0.0200
     26 N5         12.1797    8.0821   17.6255 N.am      1 <0>        -0.6600
     27 H1         14.1060    9.2295   15.5832 H         1 <0>         0.1300
     28 H2         12.7574    8.4768   14.6744 H         1 <0>         0.1300
     29 H3         12.6569    5.6185   18.9588 H         1 <0>         0.1500
     30 H4         16.8769    4.0412   17.4244 H         1 <0>         0.4000
     31 H5         17.6617    2.6849   14.9441 H         1 <0>         0.0900
     32 H6         17.0973    1.1979   17.5515 H         1 <0>         0.0800
     33 H7         16.1780    1.0417   16.0345 H         1 <0>         0.0800
     34 H8         18.2073    0.2208   14.8808 H         1 <0>         0.0500
     35 H9         17.8267   -0.8015   16.2870 H         1 <0>         0.0900
     36 H10        22.8447   -3.3113   15.5037 H         1 <0>         0.1700
     37 H11        21.8207   -2.1095   13.5861 H         1 <0>         0.1500
     38 H12        20.1832   -0.2860   14.0720 H         1 <0>         0.1500
     39 H13        20.0252    1.8012   15.0026 H         1 <0>         0.0600
     40 H14        20.9797    1.9395   16.4983 H         1 <0>         0.1000
     41 H15        19.4029    3.8453   16.2507 H         1 <0>         0.0800
     42 H16        19.0079    2.8588   17.6795 H         1 <0>         0.0800
     43 H17        15.0591    6.4311   14.7193 H         1 <0>         0.1400
     44 H18        11.6152    8.1433   18.4120 H         1 <0>         0.4200
@<TRIPOS>BOND
     1    1    2 2
     2    2   26 am
     3    2    3 1
     4    3    4 1
     5    3   27 1
     6    3   28 1
     7    4   25 ar
     8    4    5 ar
     9    5    6 ar
    10    5   26 1
    11    6    7 ar
    12    6   29 1
    13    7    8 1
    14    7    9 ar
    15    9   10 1
    16    9   25 ar
    17   10   11 2
    18   10   12 am
    19   12   13 1
    20   12   30 1
    21   13   24 1
    22   13   14 1
    23   13   31 1
    24   14   15 1
    25   14   32 1
    26   14   33 1
    27   15   16 1
    28   15   34 1
    29   15   35 1
    30   16   17 1
    31   16   23 1
    32   17   22 ar
    33   17   18 ar
    34   18   19 ar
    35   19   20 ar
    36   20   21 ar
    37   20   36 1
    38   21   22 ar
    39   21   37 1
    40   22   38 1
    41   23   24 1
    42   23   39 1
    43   23   40 1
    44   24   41 1
    45   24   42 1
    46   25   43 1
    47   26   44 1
##########                 Name:            smyd3_979
##########          Protonation:                 none
##########               SMILES:   O=C1CC2=CC(C(=O)NC3CC[NH+](C4CCOC4=O)CC3)=C(Cl)C=C2N1
##########            Long Name:   NO_LONG_NAME
##########          FlexRecCode: 1
##########               Number:                 2648
##########   Ligand Source File: /proj/zinc22/users/x_andlu/OGG1/revisions/docking/targets/smyd3/db2gen/split_par
##########                 Rank:                    1
##########               Setnum:                   27
##########             Matchnum:                    2
##########                Cloud:                    1
##########        Electrostatic:           -24.340298
##########                 Gist:             0.000000
##########        Van der Waals:           -33.151680
##########  Ligand Polar Desolv:            10.017115
########## Ligand Apolar Desolv:            -2.317592
##########      Internal Energy:             0.000000
##########      Receptor Energy:             0.000000
########## Receptor Desolvation:             0.000000
########## Receptor Hydrophobic:             0.000000
##########         Total Energy:           -49.792454
##########        Ligand Charge:             1.000000
##########            Arbitrary:    +999.9990
##########        Ligand Energy:             0.000000

@<TRIPOS>MOLECULE
smyd3_979      none
   47    50     0     0     0
SMALL
USER_CHARGES

@<TRIPOS>ATOM
      1 O1         11.5122    9.7006   16.8849 O.2       1 <0>        -0.4800
      2 C1         12.2329    8.7282   16.8078 C.2       1 <0>         0.5300
      3 C2         13.2673    8.4585   15.7359 C.3       1 <0>        -0.1100
      4 C3         13.8608    7.1244   16.1277 C.ar      1 <0>        -0.1500
      5 C4         14.8374    6.3401   15.5686 C.ar      1 <0>        -0.0200
      6 C5         15.1835    5.1255   16.1707 C.ar      1 <0>        -0.1700
      7 C6         16.2324    4.2743   15.5778 C.2       1 <0>         0.5700
      8 O2         16.1042    3.8515   14.4448 O.2       1 <0>        -0.5000
      9 N1         17.3330    3.9651   16.2917 N.am      1 <0>        -0.7300
     10 C7         18.3746    3.1199   15.7030 C.3       1 <0>         0.1400
     11 C8         19.5052    2.9197   16.7164 C.3       1 <0>        -0.1600
     12 C9         20.5510    1.9711   16.1222 C.3       1 <0>        -0.0100
     13 N2         19.9280    0.6773   15.8177 N.4       1 <0>        -0.3700
     14 H1         19.5115    0.3013   16.6564 H         1 <0>         0.4200
     15 C10        20.9511   -0.2525   15.3215 C.3       1 <0>        -0.0400
     16 C11        21.6751   -0.9360   16.5030 C.3       1 <0>        -0.1700
     17 C12        21.6945   -2.4167   16.0599 C.3       1 <0>         0.0500
     18 O3         20.5378   -2.5486   15.1815 O.3       1 <0>        -0.3100
     19 C13        20.3053   -1.3863   14.5551 C.2       1 <0>         0.4700
     20 O4         19.6742   -1.2626   13.5321 O.2       1 <0>        -0.4000
     21 C14        18.8906    0.8527   14.7943 C.3       1 <0>        -0.0200
     22 C15        17.7812    1.7565   15.3366 C.3       1 <0>        -0.1500
     23 C16        14.5234    4.7216   17.3359 C.ar      1 <0>         0.0600
     24 Cl1        14.9395    3.2132   18.0876 Cl        1 <0>        -0.0100
     25 C17        13.5487    5.5196   17.8913 C.ar      1 <0>        -0.1400
     26 C18        13.2034    6.7313   17.2909 C.ar      1 <0>         0.2000
     27 N3         12.2629    7.6884   17.6578 N.am      1 <0>        -0.6600
     28 H2         14.0335    9.2337   15.7405 H         1 <0>         0.1300
     29 H3         12.7942    8.3933   14.7561 H         1 <0>         0.1300
     30 H4         15.3375    6.6591   14.6662 H         1 <0>         0.1400
     31 H5         17.4353    4.3024   17.1955 H         1 <0>         0.4000
     32 H6         18.7690    3.5986   14.8067 H         1 <0>         0.1100
     33 H7         19.9681    3.8809   16.9399 H         1 <0>         0.1200
     34 H8         19.1010    2.4880   17.6320 H         1 <0>         0.0900
     35 H9         21.3578    1.8252   16.8405 H         1 <0>         0.1400
     36 H10        20.9545    2.4039   15.2069 H         1 <0>         0.1400
     37 H11        21.6676    0.2740   14.6912 H         1 <0>         0.1800
     38 H12        22.6886   -0.5504   16.6129 H         1 <0>         0.1400
     39 H13        21.1100   -0.8146   17.4271 H         1 <0>         0.1100
     40 H14        22.6125   -2.6395   15.5163 H         1 <0>         0.1100
     41 H15        21.5955   -3.0739   16.9238 H         1 <0>         0.1400
     42 H16        18.4716   -0.1188   14.5322 H         1 <0>         0.1500
     43 H17        19.3296    1.3093   13.9072 H         1 <0>         0.1400
     44 H18        17.3414    1.3007   16.2236 H         1 <0>         0.1000
     45 H19        17.0130    1.8868   14.5745 H         1 <0>         0.1300
     46 H20        13.0460    5.2046   18.7939 H         1 <0>         0.1500
     47 H21        11.6931    7.6132   18.4392 H         1 <0>         0.4200
@<TRIPOS>BOND
     1    1    2 2
     2    2   27 am
     3    2    3 1
     4    3    4 1
     5    3   28 1
     6    3   29 1
     7    4   26 ar
     8    4    5 ar
     9    5    6 ar
    10    5   30 1
    11    6    7 1
    12    6   23 ar
    13    7    8 2
    14    7    9 am
    15    9   10 1
    16    9   31 1
    17   10   22 1
    18   10   11 1
    19   10   32 1
    20   11   12 1
    21   11   33 1
    22   11   34 1
    23   12   13 1
    24   12   35 1
    25   12   36 1
    26   13   14 1
    27   13   15 1
    28   13   21 1
    29   15   19 1
    30   15   16 1
    31   15   37 1
    32   16   17 1
    33   16   38 1
    34   16   39 1
    35   17   18 1
    36   17   40 1
    37   17   41 1
    38   18   19 1
    39   19   20 2
    40   21   22 1
    41   21   42 1
    42   21   43 1
    43   22   44 1
    44   22   45 1
    45   23   24 1
    46   23   25 ar
    47   25   26 ar
    48   25   46 1
    49   26   27 1
    50   27   47 1
##########                 Name:            smyd3_980
##########          Protonation:                 none
##########               SMILES:   O=C1CC2=CC(C(=O)NC3CC[NH+](C4COCC4O)CC3)=C(Cl)C=C2N1
##########            Long Name:   NO_LONG_NAME
##########          FlexRecCode: 1
##########               Number:                 2657
##########   Ligand Source File: /proj/zinc22/users/x_andlu/OGG1/revisions/docking/targets/smyd3/db2gen/split_par
##########                 Rank:                    1
##########               Setnum:                   36
##########             Matchnum:                    6
##########                Cloud:                    1
##########        Electrostatic:           -21.531693
##########                 Gist:             0.000000
##########        Van der Waals:           -31.651720
##########  Ligand Polar Desolv:             8.287315
########## Ligand Apolar Desolv:            -1.097773
##########      Internal Energy:             0.000000
##########      Receptor Energy:             0.000000
########## Receptor Desolvation:             0.000000
########## Receptor Hydrophobic:             0.000000
##########         Total Energy:           -45.993870
##########        Ligand Charge:             1.000000
##########            Arbitrary:    +999.9990
##########        Ligand Energy:             0.000000

@<TRIPOS>MOLECULE
smyd3_980      none
   49    52     0     0     0
SMALL
USER_CHARGES

@<TRIPOS>ATOM
      1 O1         11.1333   10.0250   16.4497 O.2       1 <0>        -0.4800
      2 C1         11.8712    9.0664   16.5353 C.2       1 <0>         0.5300
      3 C2         12.9462    8.6683   15.5466 C.3       1 <0>        -0.1100
      4 C3         13.5465    7.4158   16.1435 C.ar      1 <0>        -0.1500
      5 C4         14.5539    6.5801   15.7338 C.ar      1 <0>        -0.0200
      6 C5         14.8979    5.4705   16.5136 C.ar      1 <0>        -0.1700
      7 C6         15.9798    4.5653   16.0822 C.2       1 <0>         0.5700
      8 O2         17.1083    4.9935   15.9345 O.2       1 <0>        -0.5000
      9 N1         15.7175    3.2635   15.8517 N.am      1 <0>        -0.7300
     10 C7         16.7920    2.3644   15.4232 C.3       1 <0>         0.1400
     11 C8         16.2330    0.9511   15.2359 C.3       1 <0>        -0.1500
     12 C9         17.3744    0.0021   14.8640 C.3       1 <0>        -0.0100
     13 N2         18.3782   -0.0050   15.9350 N.4       1 <0>        -0.3700
     14 H1         17.9386   -0.2666   16.8048 H         1 <0>         0.4300
     15 C10        19.4322   -0.9749   15.6095 C.3       1 <0>        -0.0100
     16 C11        18.8821   -2.4235   15.6449 C.3       1 <0>         0.0400
     17 O3         20.0551   -3.2230   15.9090 O.3       1 <0>        -0.3400
     18 C12        20.8411   -2.5078   16.8768 C.3       1 <0>         0.0100
     19 C13        20.5116   -1.0108   16.7188 C.3       1 <0>         0.0600
     20 O4         19.9926   -0.4785   17.9392 O.3       1 <0>        -0.5700
     21 C14        18.9698    1.3316   16.0699 C.3       1 <0>        -0.0000
     22 C15        17.8901    2.3312   16.4901 C.3       1 <0>        -0.1600
     23 C16        14.2041    5.2228   17.7025 C.ar      1 <0>         0.0600
     24 Cl1        14.6171    3.8451   18.6747 Cl        1 <0>        -0.0100
     25 C17        13.1983    6.0717   18.1070 C.ar      1 <0>        -0.1400
     26 C18        12.8552    7.1785   17.3292 C.ar      1 <0>         0.2000
     27 N3         11.8879    8.1586   17.5254 N.am      1 <0>        -0.6600
     28 H2         13.6997    9.4519   15.4653 H         1 <0>         0.1300
     29 H3         12.5085    8.4551   14.5713 H         1 <0>         0.1300
     30 H4         15.0801    6.7777   14.8115 H         1 <0>         0.1400
     31 H5         14.8174    2.9219   15.9694 H         1 <0>         0.4000
     32 H6         17.2098    2.7189   14.4809 H         1 <0>         0.1100
     33 H7         15.4896    0.9563   14.4388 H         1 <0>         0.1200
     34 H8         15.7697    0.6170   16.1643 H         1 <0>         0.1000
     35 H9         17.8367    0.3371   13.9355 H         1 <0>         0.1400
     36 H10        16.9793   -1.0049   14.7302 H         1 <0>         0.1400
     37 H11        19.8781   -0.7516   14.6402 H         1 <0>         0.1600
     38 H12        18.1518   -2.5373   16.4459 H         1 <0>         0.0900
     39 H13        18.4437   -2.6912   14.6835 H         1 <0>         0.1200
     40 H14        21.9018   -2.6756   16.6900 H         1 <0>         0.1100
     41 H15        20.5829   -2.8399   17.8824 H         1 <0>         0.0900
     42 H16        21.3969   -0.4560   16.4077 H         1 <0>         0.1100
     43 H17        19.2270   -0.9583   18.2833 H         1 <0>         0.4200
     44 H18        19.7540    1.3064   16.8267 H         1 <0>         0.1400
     45 H19        19.3973    1.6372   15.1151 H         1 <0>         0.1300
     46 H20        18.3313    3.3231   16.5893 H         1 <0>         0.1200
     47 H21        17.4611    2.0265   17.4447 H         1 <0>         0.0900
     48 H22        12.6695    5.8778   19.0286 H         1 <0>         0.1500
     49 H23        11.2925    8.1837   18.2907 H         1 <0>         0.4200
@<TRIPOS>BOND
     1    1    2 2
     2    2   27 am
     3    2    3 1
     4    3    4 1
     5    3   28 1
     6    3   29 1
     7    4   26 ar
     8    4    5 ar
     9    5    6 ar
    10    5   30 1
    11    6    7 1
    12    6   23 ar
    13    7    8 2
    14    7    9 am
    15    9   10 1
    16    9   31 1
    17   10   22 1
    18   10   11 1
    19   10   32 1
    20   11   12 1
    21   11   33 1
    22   11   34 1
    23   12   13 1
    24   12   35 1
    25   12   36 1
    26   13   14 1
    27   13   15 1
    28   13   21 1
    29   15   19 1
    30   15   16 1
    31   15   37 1
    32   16   17 1
    33   16   38 1
    34   16   39 1
    35   17   18 1
    36   18   19 1
    37   18   40 1
    38   18   41 1
    39   19   20 1
    40   19   42 1
    41   20   43 1
    42   21   22 1
    43   21   44 1
    44   21   45 1
    45   22   46 1
    46   22   47 1
    47   23   24 1
    48   23   25 ar
    49   25   26 ar
    50   25   48 1
    51   26   27 1
    52   27   49 1
##########                 Name:            smyd3_981
##########          Protonation:                 none
##########               SMILES:   O=C1CC2=CC(C(=O)NC3CC[NH+](C4CCCCC4)CC3)=C(Cl)C=C2N1
##########            Long Name:   NO_LONG_NAME
##########          FlexRecCode: 1
##########               Number:                 2660
##########   Ligand Source File: /proj/zinc22/users/x_andlu/OGG1/revisions/docking/targets/smyd3/db2gen/split_par
##########                 Rank:                    1
##########               Setnum:                    4
##########             Matchnum:                   10
##########                Cloud:                    1
##########        Electrostatic:           -17.404543
##########                 Gist:             0.000000
##########        Van der Waals:           -36.113239
##########  Ligand Polar Desolv:             8.924075
########## Ligand Apolar Desolv:            -2.967534
##########      Internal Energy:             0.000000
##########      Receptor Energy:             0.000000
########## Receptor Desolvation:             0.000000
########## Receptor Hydrophobic:             0.000000
##########         Total Energy:           -47.561241
##########        Ligand Charge:             1.000000
##########            Arbitrary:    +999.9990
##########        Ligand Energy:             0.000000

@<TRIPOS>MOLECULE
smyd3_981      none
   53    56     0     0     0
SMALL
USER_CHARGES

@<TRIPOS>ATOM
      1 O1         11.7609   10.2085   16.7156 O.2       1 <0>        -0.4800
      2 C1         12.3097    9.1271   16.6978 C.2       1 <0>         0.5300
      3 C2         13.2460    8.6120   15.6255 C.3       1 <0>        -0.1100
      4 C3         13.6276    7.2303   16.1064 C.ar      1 <0>        -0.1500
      5 C4         14.4417    6.2562   15.5872 C.ar      1 <0>        -0.0200
      6 C5         14.6066    5.0484   16.2742 C.ar      1 <0>        -0.1700
      7 C6         15.4800    3.9941   15.7246 C.2       1 <0>         0.5700
      8 O2         15.2427    3.5167   14.6318 O.2       1 <0>        -0.5000
      9 N1         16.5408    3.5602   16.4336 N.am      1 <0>        -0.7300
     10 C7         17.4080    2.5133   15.8878 C.3       1 <0>         0.1400
     11 C8         18.8324    2.7000   16.4183 C.3       1 <0>        -0.1600
     12 C9         19.7150    1.5595   15.9066 C.3       1 <0>        -0.0100
     13 N2         19.1812    0.2749   16.3753 N.4       1 <0>        -0.3800
     14 H1         19.1225    0.2835   17.3825 H         1 <0>         0.4200
     15 C10        20.0743   -0.8102   15.9474 C.3       1 <0>         0.0300
     16 C11        19.8280   -2.0457   16.8157 C.3       1 <0>        -0.1400
     17 C12        20.7581   -3.1758   16.3701 C.3       1 <0>        -0.1200
     18 C13        20.4794   -3.5180   14.9051 C.3       1 <0>        -0.1300
     19 C14        20.7257   -2.2825   14.0369 C.3       1 <0>        -0.1200
     20 C15        19.7955   -1.1524   14.4825 C.3       1 <0>        -0.1400
     21 C16        17.8435    0.0562   15.8121 C.3       1 <0>        -0.0100
     22 C17        16.8889    1.1390   16.3200 C.3       1 <0>        -0.1600
     23 C18        13.9327    4.8462   17.4829 C.ar      1 <0>         0.0600
     24 Cl1        14.1241    3.3490   18.3406 Cl        1 <0>        -0.0100
     25 C19        13.1226    5.8333   17.9977 C.ar      1 <0>        -0.1400
     26 C20        12.9580    7.0381   17.3125 C.ar      1 <0>         0.2000
     27 N3         12.2006    8.1620   17.6258 N.am      1 <0>        -0.6600
     28 H2         14.1281    9.2478   15.5508 H         1 <0>         0.1300
     29 H3         12.7328    8.5543   14.6656 H         1 <0>         0.1300
     30 H4         14.9537    6.4207   14.6506 H         1 <0>         0.1400
     31 H5         16.7301    3.9412   17.3054 H         1 <0>         0.4000
     32 H6         17.4134    2.5752   14.7994 H         1 <0>         0.1100
     33 H7         18.8192    2.6892   17.5082 H         1 <0>         0.0900
     34 H8         19.2293    3.6527   16.0679 H         1 <0>         0.1200
     35 H9         20.7299    1.6894   16.2824 H         1 <0>         0.1400
     36 H10        19.7272    1.5714   14.8169 H         1 <0>         0.1300
     37 H11        21.1110   -0.4912   16.0551 H         1 <0>         0.1400
     38 H12        18.7913   -2.3645   16.7080 H         1 <0>         0.0900
     39 H13        20.0265   -1.8018   17.8592 H         1 <0>         0.0900
     40 H14        20.5826   -4.0560   16.9885 H         1 <0>         0.0800
     41 H15        21.7948   -2.8569   16.4778 H         1 <0>         0.0700
     42 H16        21.1420   -4.3232   14.5876 H         1 <0>         0.0800
     43 H17        19.4426   -3.8370   14.7974 H         1 <0>         0.0700
     44 H18        21.7623   -1.9636   14.1446 H         1 <0>         0.0700
     45 H19        20.5271   -2.5264   12.9933 H         1 <0>         0.0800
     46 H20        19.9710   -0.2722   13.8639 H         1 <0>         0.0900
     47 H21        18.7588   -1.4714   14.3748 H         1 <0>         0.0900
     48 H22        17.8961    0.1002   14.7242 H         1 <0>         0.1300
     49 H23        17.4766   -0.9235   16.1179 H         1 <0>         0.1400
     50 H24        16.8353    1.0958   17.4078 H         1 <0>         0.0900
     51 H25        15.8967    0.9759   15.8993 H         1 <0>         0.1200
     52 H26        12.6088    5.6731   18.9340 H         1 <0>         0.1500
     53 H27        11.6554    8.2400   18.4242 H         1 <0>         0.4200
@<TRIPOS>BOND
     1    1    2 2
     2    2   27 am
     3    2    3 1
     4    3    4 1
     5    3   28 1
     6    3   29 1
     7    4   26 ar
     8    4    5 ar
     9    5    6 ar
    10    5   30 1
    11    6    7 1
    12    6   23 ar
    13    7    8 2
    14    7    9 am
    15    9   10 1
    16    9   31 1
    17   10   22 1
    18   10   11 1
    19   10   32 1
    20   11   12 1
    21   11   33 1
    22   11   34 1
    23   12   13 1
    24   12   35 1
    25   12   36 1
    26   13   14 1
    27   13   15 1
    28   13   21 1
    29   15   20 1
    30   15   16 1
    31   15   37 1
    32   16   17 1
    33   16   38 1
    34   16   39 1
    35   17   18 1
    36   17   40 1
    37   17   41 1
    38   18   19 1
    39   18   42 1
    40   18   43 1
    41   19   20 1
    42   19   44 1
    43   19   45 1
    44   20   46 1
    45   20   47 1
    46   21   22 1
    47   21   48 1
    48   21   49 1
    49   22   50 1
    50   22   51 1
    51   23   24 1
    52   23   25 ar
    53   25   26 ar
    54   25   52 1
    55   26   27 1
    56   27   53 1
##########                 Name:            smyd3_982
##########          Protonation:                 none
##########               SMILES:   O=C1CC2=CC(C(=O)NC3CC[NH+](C4CCOCC4)CC3)=C(Cl)C=C2N1
##########            Long Name:   NO_LONG_NAME
##########          FlexRecCode: 1
##########               Number:                 2663
##########   Ligand Source File: /proj/zinc22/users/x_andlu/OGG1/revisions/docking/targets/smyd3/db2gen/split_par
##########                 Rank:                    1
##########               Setnum:                   12
##########             Matchnum:                    1
##########                Cloud:                    1
##########        Electrostatic:           -18.649628
##########                 Gist:             0.000000
##########        Van der Waals:           -35.175488
##########  Ligand Polar Desolv:             9.771318
########## Ligand Apolar Desolv:            -2.008065
##########      Internal Energy:             0.000000
##########      Receptor Energy:             0.000000
########## Receptor Desolvation:             0.000000
########## Receptor Hydrophobic:             0.000000
##########         Total Energy:           -46.061859
##########        Ligand Charge:             1.000000
##########            Arbitrary:    +999.9990
##########        Ligand Energy:             0.000000

@<TRIPOS>MOLECULE
smyd3_982      none
   51    54     0     0     0
SMALL
USER_CHARGES

@<TRIPOS>ATOM
      1 O1         11.9149   10.2652   16.8425 O.2       1 <0>        -0.4800
      2 C1         12.4563    9.1806   16.8081 C.2       1 <0>         0.5300
      3 C2         13.4814    8.7193   15.7940 C.3       1 <0>        -0.1100
      4 C3         13.8100    7.3072   16.2226 C.ar      1 <0>        -0.1500
      5 C4         14.6611    6.3564   15.7198 C.ar      1 <0>        -0.0200
      6 C5         14.7567    5.1081   16.3445 C.ar      1 <0>        -0.1700
      7 C6         15.6645    4.0762   15.8085 C.2       1 <0>         0.5700
      8 O2         15.5171    3.6671   14.6729 O.2       1 <0>        -0.5000
      9 N1         16.6574    3.5870   16.5774 N.am      1 <0>        -0.7300
     10 C7         17.5590    2.5623   16.0450 C.3       1 <0>         0.1400
     11 C8         16.9912    1.1728   16.3488 C.3       1 <0>        -0.1600
     12 C9         17.9766    0.1077   15.8626 C.3       1 <0>        -0.0100
     13 N2         19.2635    0.2747   16.5489 N.4       1 <0>        -0.3800
     14 H1         19.1204    0.2255   17.5464 H         1 <0>         0.4200
     15 C10        20.1798   -0.7965   16.1353 C.3       1 <0>         0.0200
     16 C11        20.0122   -1.0639   14.6364 C.3       1 <0>        -0.1800
     17 C12        20.9114   -2.2350   14.2314 C.3       1 <0>         0.0600
     18 O3         20.5787   -3.3841   15.0130 O.3       1 <0>        -0.3700
     19 C13        20.7627   -3.2066   16.4189 C.3       1 <0>         0.0600
     20 C14        19.8560   -2.0762   16.9123 C.3       1 <0>        -0.1800
     21 C15        19.8471    1.5764   16.2032 C.3       1 <0>        -0.0100
     22 C16        18.9345    2.6979   16.7043 C.3       1 <0>        -0.1600
     23 C17        13.9808    4.8441   17.4779 C.ar      1 <0>         0.0600
     24 Cl1        14.0905    3.2987   18.2612 Cl        1 <0>        -0.0100
     25 C18        13.1300    5.8062   17.9741 C.ar      1 <0>        -0.1400
     26 C19        13.0343    7.0513   17.3508 C.ar      1 <0>         0.2000
     27 N3         12.2590    8.1632   17.6629 N.am      1 <0>        -0.6600
     28 H2         14.3706    9.3483   15.8363 H         1 <0>         0.1300
     29 H3         13.0555    8.7248   14.7906 H         1 <0>         0.1300
     30 H4         15.2556    6.5705   14.8438 H         1 <0>         0.1400
     31 H5         16.7751    3.9134   17.4832 H         1 <0>         0.4000
     32 H6         17.6576    2.6879   14.9668 H         1 <0>         0.1100
     33 H7         16.8436    1.0669   17.4235 H         1 <0>         0.0900
     34 H8         16.0374    1.0492   15.8357 H         1 <0>         0.1200
     35 H9         18.1223    0.2134   14.7876 H         1 <0>         0.1300
     36 H10        17.5758   -0.8825   16.0790 H         1 <0>         0.1400
     37 H11        21.2075   -0.4961   16.3395 H         1 <0>         0.1400
     38 H12        18.9727   -1.3144   14.4251 H         1 <0>         0.1000
     39 H13        20.2951   -0.1742   14.0737 H         1 <0>         0.1000
     40 H14        21.9539   -1.9676   14.4039 H         1 <0>         0.0700
     41 H15        20.7636   -2.4587   13.1749 H         1 <0>         0.1200
     42 H16        21.8033   -2.9521   16.6200 H         1 <0>         0.0700
     43 H17        20.5076   -4.1303   16.9385 H         1 <0>         0.1200
     44 H18        20.0272   -1.9097   17.9758 H         1 <0>         0.1000
     45 H19        18.8129   -2.3471   16.7493 H         1 <0>         0.1000
     46 H20        19.9528    1.6508   15.1209 H         1 <0>         0.1300
     47 H21        20.8273    1.6701   16.6705 H         1 <0>         0.1400
     48 H22        19.3687    3.6636   16.4451 H         1 <0>         0.1200
     49 H23        18.8283    2.6246   17.7866 H         1 <0>         0.0900
     50 H24        12.5337    5.5963   18.8497 H         1 <0>         0.1500
     51 H25        11.6450    8.1996   18.4129 H         1 <0>         0.4200
@<TRIPOS>BOND
     1    1    2 2
     2    2   27 am
     3    2    3 1
     4    3    4 1
     5    3   28 1
     6    3   29 1
     7    4   26 ar
     8    4    5 ar
     9    5    6 ar
    10    5   30 1
    11    6    7 1
    12    6   23 ar
    13    7    8 2
    14    7    9 am
    15    9   10 1
    16    9   31 1
    17   10   22 1
    18   10   11 1
    19   10   32 1
    20   11   12 1
    21   11   33 1
    22   11   34 1
    23   12   13 1
    24   12   35 1
    25   12   36 1
    26   13   14 1
    27   13   15 1
    28   13   21 1
    29   15   20 1
    30   15   16 1
    31   15   37 1
    32   16   17 1
    33   16   38 1
    34   16   39 1
    35   17   18 1
    36   17   40 1
    37   17   41 1
    38   18   19 1
    39   19   20 1
    40   19   42 1
    41   19   43 1
    42   20   44 1
    43   20   45 1
    44   21   22 1
    45   21   46 1
    46   21   47 1
    47   22   48 1
    48   22   49 1
    49   23   24 1
    50   23   25 ar
    51   25   26 ar
    52   25   50 1
    53   26   27 1
    54   27   51 1
##########                 Name:            smyd3_983
##########          Protonation:                 none
##########               SMILES:   CN(C)C(=O)C[NH+]1CCC(NC(=O)C2=CC3=C(C=C2Cl)NC(=O)C3)CC1
##########            Long Name:   NO_LONG_NAME
##########          FlexRecCode: 1
##########               Number:                 2669
##########   Ligand Source File: /proj/zinc22/users/x_andlu/OGG1/revisions/docking/targets/smyd3/db2gen/split_par
##########                 Rank:                    1
##########               Setnum:                    4
##########             Matchnum:                    1
##########                Cloud:                    1
##########        Electrostatic:           -26.910919
##########                 Gist:             0.000000
##########        Van der Waals:           -35.880749
##########  Ligand Polar Desolv:             9.985858
########## Ligand Apolar Desolv:            -1.884400
##########      Internal Energy:             0.000000
##########      Receptor Energy:             0.000000
########## Receptor Desolvation:             0.000000
########## Receptor Hydrophobic:             0.000000
##########         Total Energy:           -54.690208
##########        Ligand Charge:             1.000000
##########            Arbitrary:    +999.9990
##########        Ligand Energy:             0.000000

@<TRIPOS>MOLECULE
smyd3_983      none
   50    52     0     0     0
SMALL
USER_CHARGES

@<TRIPOS>ATOM
      1 C1         21.9632   -3.4578   17.0266 C.3       1 <0>         0.0800
      2 N1         22.0535   -2.2118   16.2614 N.am      1 <0>        -0.5900
      3 C2         23.0778   -2.0612   15.2249 C.3       1 <0>         0.0600
      4 C3         21.1942   -1.2039   16.5110 C.2       1 <0>         0.5000
      5 O1         20.3462   -1.3285   17.3691 O.2       1 <0>        -0.5300
      6 C4         21.2870    0.0778   15.7238 C.3       1 <0>        -0.0300
      7 N2         20.2483    1.0100   16.1820 N.4       1 <0>        -0.3700
      8 H1         20.1692    0.9552   17.1863 H         1 <0>         0.4300
      9 C5         20.6152    2.3777   15.7954 C.3       1 <0>        -0.0100
     10 C6         19.5777    3.3615   16.3403 C.3       1 <0>        -0.1500
     11 C7         18.2024    3.0175   15.7612 C.3       1 <0>         0.1400
     12 N3         17.1916    3.9077   16.3373 N.am      1 <0>        -0.7300
     13 C8         16.0968    4.2359   15.6229 C.2       1 <0>         0.5700
     14 O2         15.9482    3.7932   14.5003 O.2       1 <0>        -0.5100
     15 C9         15.0790    5.1325   16.2030 C.ar      1 <0>        -0.1700
     16 C10        14.7677    6.3440   15.5768 C.ar      1 <0>        -0.0200
     17 C11        13.8156    7.1684   16.1211 C.ar      1 <0>        -0.1500
     18 C12        13.1494    6.8189   17.2928 C.ar      1 <0>         0.2000
     19 C13        13.4599    5.6097   17.9176 C.ar      1 <0>        -0.1400
     20 C14        14.4136    4.7749   17.3806 C.ar      1 <0>         0.0600
     21 Cl1        14.7916    3.2740   18.1667 Cl        1 <0>        -0.0100
     22 N4         12.2385    7.8106   17.6414 N.am      1 <0>        -0.6600
     23 C15        12.2375    8.8333   16.7704 C.2       1 <0>         0.5300
     24 O3         11.5460    9.8280   16.8285 O.2       1 <0>        -0.4800
     25 C16        13.2612    8.5112   15.7027 C.3       1 <0>        -0.1100
     26 C17        17.8615    1.5647   16.1057 C.3       1 <0>        -0.1600
     27 C18        18.9637    0.6475   15.5711 C.3       1 <0>        -0.0000
     28 H2         21.1476   -3.3841   17.7460 H         1 <0>         0.0700
     29 H3         21.7741   -4.2887   16.3469 H         1 <0>         0.0900
     30 H4         22.9005   -3.6276   17.5561 H         1 <0>         0.0900
     31 H5         22.9902   -1.0757   14.7679 H         1 <0>         0.0800
     32 H6         24.0660   -2.1676   15.6725 H         1 <0>         0.0800
     33 H7         22.9395   -2.8286   14.4633 H         1 <0>         0.0800
     34 H8         21.1426   -0.1351   14.6646 H         1 <0>         0.1600
     35 H9         22.2692    0.5260   15.8738 H         1 <0>         0.1600
     36 H10        20.6490    2.4509   14.7084 H         1 <0>         0.1300
     37 H11        21.5955    2.6196   16.2060 H         1 <0>         0.1400
     38 H12        19.8511    4.3762   16.0507 H         1 <0>         0.1200
     39 H13        19.5433    3.2894   17.4273 H         1 <0>         0.1000
     40 H14        18.2217    3.1404   14.6784 H         1 <0>         0.1100
     41 H15        17.3102    4.2608   17.2330 H         1 <0>         0.4000
     42 H16        15.2752    6.6293   14.6671 H         1 <0>         0.1400
     43 H17        12.9497    5.3280   18.8269 H         1 <0>         0.1500
     44 H18        11.6683    7.7685   18.4250 H         1 <0>         0.4200
     45 H19        14.0501    9.2633   15.6904 H         1 <0>         0.1300
     46 H20        12.7844    8.4400   14.7251 H         1 <0>         0.1300
     47 H21        17.7907    1.4542   17.1877 H         1 <0>         0.0900
     48 H22        16.9092    1.2960   15.6486 H         1 <0>         0.1200
     49 H23        19.0327    0.7575   14.4889 H         1 <0>         0.1400
     50 H24        18.7246   -0.3873   15.8161 H         1 <0>         0.1400
@<TRIPOS>BOND
     1    1    2 1
     2    1   28 1
     3    1   29 1
     4    1   30 1
     5    2    3 1
     6    2    4 am
     7    3   31 1
     8    3   32 1
     9    3   33 1
    10    4    5 2
    11    4    6 1
    12    6    7 1
    13    6   34 1
    14    6   35 1
    15    7    8 1
    16    7   27 1
    17    7    9 1
    18    9   10 1
    19    9   36 1
    20    9   37 1
    21   10   11 1
    22   10   38 1
    23   10   39 1
    24   11   12 1
    25   11   26 1
    26   11   40 1
    27   12   13 am
    28   12   41 1
    29   13   14 2
    30   13   15 1
    31   15   20 ar
    32   15   16 ar
    33   16   17 ar
    34   16   42 1
    35   17   25 1
    36   17   18 ar
    37   18   19 ar
    38   18   22 1
    39   19   20 ar
    40   19   43 1
    41   20   21 1
    42   22   23 am
    43   22   44 1
    44   23   24 2
    45   23   25 1
    46   25   45 1
    47   25   46 1
    48   26   27 1
    49   26   47 1
    50   26   48 1
    51   27   49 1
    52   27   50 1
##########                 Name:            smyd3_984
##########          Protonation:                 none
##########               SMILES:   CCOC(=O)CN1CCC(NC(=O)C2=CC3=C(C=C2Cl)NC(=O)C3)CC1
##########            Long Name:   NO_LONG_NAME
##########          FlexRecCode: 1
##########               Number:                 2670
##########   Ligand Source File: /proj/zinc22/users/x_andlu/OGG1/revisions/docking/targets/smyd3/db2gen/split_par
##########                 Rank:                    1
##########               Setnum:                  153
##########             Matchnum:                   19
##########                Cloud:                    1
##########        Electrostatic:           -15.449179
##########                 Gist:             0.000000
##########        Van der Waals:           -37.092216
##########  Ligand Polar Desolv:             6.558898
########## Ligand Apolar Desolv:            -2.027326
##########      Internal Energy:             0.000000
##########      Receptor Energy:             0.000000
########## Receptor Desolvation:             0.000000
########## Receptor Hydrophobic:             0.000000
##########         Total Energy:           -48.009823
##########        Ligand Charge:             0.000000
##########            Arbitrary:    +999.9990
##########        Ligand Energy:             0.000000

@<TRIPOS>MOLECULE
smyd3_984      none
   48    50     0     0     0
SMALL
USER_CHARGES

@<TRIPOS>ATOM
      1 C1         22.1882   -4.0038   17.5803 C.3       1 <0>        -0.1500
      2 C2         21.2210   -2.9341   18.0912 C.3       1 <0>         0.0600
      3 O1         20.4514   -2.4064   16.9788 O.3       1 <0>        -0.3600
      4 C3         20.9617   -1.3460   16.3333 C.2       1 <0>         0.4600
      5 O2         22.0167   -0.8742   16.6860 O.2       1 <0>        -0.4900
      6 C4         20.2190   -0.7438   15.1684 C.3       1 <0>         0.0600
      7 N1         19.3084    0.3010   15.6556 N.3       1 <0>        -0.5300
      8 C5         20.0461    1.5229   16.0006 C.3       1 <0>         0.0600
      9 C6         19.0908    2.5342   16.6383 C.3       1 <0>        -0.1300
     10 C7         17.9643    2.8567   15.6525 C.3       1 <0>         0.1500
     11 N2         17.0149    3.7798   16.2791 N.am      1 <0>        -0.7200
     12 C8         15.9332    4.2017   15.5945 C.2       1 <0>         0.5600
     13 O3         15.7456    3.8159   14.4567 O.2       1 <0>        -0.5100
     14 C9         14.9772    5.1312   16.2254 C.ar      1 <0>        -0.1500
     15 C10        14.7312    6.3842   15.6543 C.ar      1 <0>        -0.0200
     16 C11        13.8403    7.2418   16.2488 C.ar      1 <0>        -0.1500
     17 C12        13.1725    6.8854   17.4175 C.ar      1 <0>         0.1900
     18 C13        13.4182    5.6348   17.9875 C.ar      1 <0>        -0.1400
     19 C14        14.3056    4.7642   17.3966 C.ar      1 <0>         0.0500
     20 Cl1        14.5976    3.2089   18.1105 Cl        1 <0>        -0.0100
     21 N3         12.3294    7.9151   17.8221 N.am      1 <0>        -0.6600
     22 C15        12.3771    8.9709   16.9929 C.2       1 <0>         0.5300
     23 O4         11.7485   10.0022   17.1032 O.2       1 <0>        -0.4900
     24 C16        13.3624    8.6317   15.8946 C.3       1 <0>        -0.1100
     25 C17        17.2429    1.5608   15.2722 C.3       1 <0>        -0.1200
     26 C18        18.2518    0.5778   14.6741 C.3       1 <0>         0.0500
     27 H1         22.7661   -4.3999   18.4154 H         1 <0>         0.0700
     28 H2         21.6238   -4.8110   17.1137 H         1 <0>         0.0800
     29 H3         22.8643   -3.5625   16.8478 H         1 <0>         0.0700
     30 H4         21.7854   -2.1268   18.5579 H         1 <0>         0.0700
     31 H5         20.5451   -3.3755   18.8236 H         1 <0>         0.0700
     32 H6         20.9322   -0.3071   14.4694 H         1 <0>         0.1200
     33 H7         19.6443   -1.5202   14.6635 H         1 <0>         0.0800
     34 H8         20.8415    1.2804   16.7053 H         1 <0>         0.0800
     35 H9         20.4798    1.9525   15.0975 H         1 <0>         0.0400
     36 H10        19.6353    3.4470   16.8800 H         1 <0>         0.0800
     37 H11        18.6672    2.1105   17.5489 H         1 <0>         0.0800
     38 H12        18.3830    3.3168   14.7575 H         1 <0>         0.0900
     39 H13        17.1645    4.0875   17.1867 H         1 <0>         0.4000
     40 H14        15.2407    6.6755   14.7477 H         1 <0>         0.1400
     41 H15        12.9065    5.3475   18.8942 H         1 <0>         0.1500
     42 H16        11.7700    7.8752   18.6136 H         1 <0>         0.4200
     43 H17        14.1954    9.3346   15.8979 H         1 <0>         0.1300
     44 H18        12.8667    8.6295   14.9239 H         1 <0>         0.1300
     45 H19        16.4673    1.7781   14.5379 H         1 <0>         0.0800
     46 H20        16.7904    1.1219   16.1614 H         1 <0>         0.0800
     47 H21        18.6938    1.0117   13.7773 H         1 <0>         0.0400
     48 H22        17.7439   -0.3513   14.4156 H         1 <0>         0.0900
@<TRIPOS>BOND
     1    1    2 1
     2    1   27 1
     3    1   28 1
     4    1   29 1
     5    2    3 1
     6    2   30 1
     7    2   31 1
     8    3    4 1
     9    4    5 2
    10    4    6 1
    11    6    7 1
    12    6   32 1
    13    6   33 1
    14    7   26 1
    15    7    8 1
    16    8    9 1
    17    8   34 1
    18    8   35 1
    19    9   10 1
    20    9   36 1
    21    9   37 1
    22   10   11 1
    23   10   25 1
    24   10   38 1
    25   11   12 am
    26   11   39 1
    27   12   13 2
    28   12   14 1
    29   14   19 ar
    30   14   15 ar
    31   15   16 ar
    32   15   40 1
    33   16   24 1
    34   16   17 ar
    35   17   18 ar
    36   17   21 1
    37   18   19 ar
    38   18   41 1
    39   19   20 1
    40   21   22 am
    41   21   42 1
    42   22   23 2
    43   22   24 1
    44   24   43 1
    45   24   44 1
    46   25   26 1
    47   25   45 1
    48   25   46 1
    49   26   47 1
    50   26   48 1
##########                 Name:            smyd3_986
##########          Protonation:                 none
##########               SMILES:   COCC(O)C[NH+]1CCC(NC(=O)C2=CC3=C(C=C2Cl)NC(=O)C3)CC1
##########            Long Name:   NO_LONG_NAME
##########          FlexRecCode: 1
##########               Number:                 2675
##########   Ligand Source File: /proj/zinc22/users/x_andlu/OGG1/revisions/docking/targets/smyd3/db2gen/split_par
##########                 Rank:                    1
##########               Setnum:                  211
##########             Matchnum:                   14
##########                Cloud:                    1
##########        Electrostatic:           -25.638540
##########                 Gist:             0.000000
##########        Van der Waals:           -35.792877
##########  Ligand Polar Desolv:             8.141542
########## Ligand Apolar Desolv:            -1.131562
##########      Internal Energy:             0.000000
##########      Receptor Energy:             0.000000
########## Receptor Desolvation:             0.000000
########## Receptor Hydrophobic:             0.000000
##########         Total Energy:           -54.421440
##########        Ligand Charge:             1.000000
##########            Arbitrary:    +999.9990
##########        Ligand Energy:             0.000000

@<TRIPOS>MOLECULE
smyd3_986      none
   51    53     0     0     0
SMALL
USER_CHARGES

@<TRIPOS>ATOM
      1 C1         23.2453   -4.2567   16.8711 C.3       1 <0>         0.0300
      2 O1         22.6232   -3.0029   17.1590 O.3       1 <0>        -0.3800
      3 C2         21.8843   -2.4559   16.0649 C.3       1 <0>         0.0300
      4 C3         21.2651   -1.1210   16.4843 C.3       1 <0>         0.0900
      5 O2         20.3890   -1.3301   17.5938 O.3       1 <0>        -0.5400
      6 C4         20.4740   -0.5354   15.3130 C.3       1 <0>        -0.0400
      7 N1         19.5118    0.4532   15.8177 N.4       1 <0>        -0.3800
      8 H1         19.1042    0.1150   16.6764 H         1 <0>         0.4300
      9 C5         20.2046    1.7219   16.0730 C.3       1 <0>        -0.0100
     10 C6         19.2240    2.7306   16.6750 C.3       1 <0>        -0.1600
     11 C7         18.0733    2.9645   15.6920 C.3       1 <0>         0.1400
     12 N2         17.0920    3.8711   16.2934 N.am      1 <0>        -0.7300
     13 C8         15.9858    4.2185   15.6063 C.2       1 <0>         0.5700
     14 O3         15.8022    3.7795   14.4874 O.2       1 <0>        -0.5100
     15 C9         14.9978    5.1314   16.2118 C.ar      1 <0>        -0.1700
     16 C10        14.6915    6.3485   15.5943 C.ar      1 <0>        -0.0200
     17 C11        13.7669    7.1882   16.1625 C.ar      1 <0>        -0.1500
     18 C12        13.1241    6.8486   17.3500 C.ar      1 <0>         0.2000
     19 C13        13.4296    5.6337   17.9661 C.ar      1 <0>        -0.1400
     20 C14        14.3556    4.7837   17.4053 C.ar      1 <0>         0.0600
     21 Cl1        14.7275    3.2757   18.1808 Cl        1 <0>        -0.0100
     22 N3         12.2388    7.8552   17.7217 N.am      1 <0>        -0.6600
     23 C15        12.2335    8.8788   16.8518 C.2       1 <0>         0.5300
     24 O4         11.5605    9.8847   16.9274 O.2       1 <0>        -0.4800
     25 C16        13.2251    8.5406   15.7589 C.3       1 <0>        -0.1100
     26 C17        17.4044    1.6243   15.3735 C.3       1 <0>        -0.1600
     27 C18        18.4529    0.6558   14.8216 C.3       1 <0>        -0.0000
     28 H2         23.7861   -4.6046   17.7512 H         1 <0>         0.0500
     29 H3         22.4829   -4.9870   16.6007 H         1 <0>         0.1000
     30 H4         23.9419   -4.1346   16.0414 H         1 <0>         0.0500
     31 H5         21.0935   -3.1491   15.7780 H         1 <0>         0.0600
     32 H6         22.5525   -2.2965   15.2187 H         1 <0>         0.0700
     33 H7         22.0559   -0.4280   16.7714 H         1 <0>         0.1300
     34 H8         19.6596   -1.9378   17.4099 H         1 <0>         0.3900
     35 H9         19.9386   -1.3347   14.8004 H         1 <0>         0.1400
     36 H10        21.1596   -0.0526   14.6167 H         1 <0>         0.1400
     37 H11        20.5998    2.1145   15.1362 H         1 <0>         0.1300
     38 H12        21.0250    1.5527   16.7704 H         1 <0>         0.1400
     39 H13        19.7399    3.6724   16.8622 H         1 <0>         0.1200
     40 H14        18.8284    2.3391   17.6120 H         1 <0>         0.1000
     41 H15        18.4619    3.4052   14.7740 H         1 <0>         0.1100
     42 H16        17.2384    4.2213   17.1860 H         1 <0>         0.4000
     43 H17        15.1811    6.6264   14.6726 H         1 <0>         0.1400
     44 H18        12.9373    5.3597   18.8876 H         1 <0>         0.1500
     45 H19        11.6875    7.8217   18.5192 H         1 <0>         0.4200
     46 H20        14.0260    9.2794   15.7275 H         1 <0>         0.1300
     47 H21        12.7232    8.4785   14.7932 H         1 <0>         0.1300
     48 H22        16.9700    1.2091   16.2830 H         1 <0>         0.0900
     49 H23        16.6207    1.7759   14.6313 H         1 <0>         0.1200
     50 H24        18.8855    1.0712   13.9115 H         1 <0>         0.1300
     51 H25        17.9799   -0.2998   14.5953 H         1 <0>         0.1300
@<TRIPOS>BOND
     1    1    2 1
     2    1   28 1
     3    1   29 1
     4    1   30 1
     5    2    3 1
     6    3    4 1
     7    3   31 1
     8    3   32 1
     9    4    5 1
    10    4    6 1
    11    4   33 1
    12    5   34 1
    13    6    7 1
    14    6   35 1
    15    6   36 1
    16    7    8 1
    17    7   27 1
    18    7    9 1
    19    9   10 1
    20    9   37 1
    21    9   38 1
    22   10   11 1
    23   10   39 1
    24   10   40 1
    25   11   12 1
    26   11   26 1
    27   11   41 1
    28   12   13 am
    29   12   42 1
    30   13   14 2
    31   13   15 1
    32   15   20 ar
    33   15   16 ar
    34   16   17 ar
    35   16   43 1
    36   17   25 1
    37   17   18 ar
    38   18   19 ar
    39   18   22 1
    40   19   20 ar
    41   19   44 1
    42   20   21 1
    43   22   23 am
    44   22   45 1
    45   23   24 2
    46   23   25 1
    47   25   46 1
    48   25   47 1
    49   26   27 1
    50   26   48 1
    51   26   49 1
    52   27   50 1
    53   27   51 1
##########                 Name:            smyd3_987
##########          Protonation:                 none
##########               SMILES:   CC(C)CCC[NH+]1CCC(NC(=O)C2=CC3=C(C=C2Cl)NC(=O)C3)CC1
##########            Long Name:   NO_LONG_NAME
##########          FlexRecCode: 1
##########               Number:                 2677
##########   Ligand Source File: /proj/zinc22/users/x_andlu/OGG1/revisions/docking/targets/smyd3/db2gen/split_par
##########                 Rank:                    1
##########               Setnum:                  119
##########             Matchnum:                    1
##########                Cloud:                    1
##########        Electrostatic:           -26.592335
##########                 Gist:             0.000000
##########        Van der Waals:           -34.579060
##########  Ligand Polar Desolv:            10.110631
########## Ligand Apolar Desolv:            -2.939892
##########      Internal Energy:             0.000000
##########      Receptor Energy:             0.000000
########## Receptor Desolvation:             0.000000
########## Receptor Hydrophobic:             0.000000
##########         Total Energy:           -54.000656
##########        Ligand Charge:             1.000000
##########            Arbitrary:    +999.9990
##########        Ligand Energy:             0.000000

@<TRIPOS>MOLECULE
smyd3_987      none
   55    57     0     0     0
SMALL
USER_CHARGES

@<TRIPOS>ATOM
      1 C1         21.2284   -3.6235   16.7224 C.3       1 <0>        -0.1500
      2 C2         22.0371   -2.9725   15.5985 C.3       1 <0>        -0.1000
      3 C3         23.1082   -3.9493   15.1091 C.3       1 <0>        -0.1500
      4 C4         21.1042   -2.6159   14.4396 C.3       1 <0>        -0.1100
      5 C5         20.0331   -1.6390   14.9290 C.3       1 <0>        -0.1500
      6 C6         20.7036   -0.3677   15.4535 C.3       1 <0>        -0.0100
      7 N1         19.6751    0.5701   15.9234 N.4       1 <0>        -0.3800
      8 H1         19.1430    0.1388   16.6644 H         1 <0>         0.4200
      9 C7         20.3199    1.7872   16.4305 C.3       1 <0>        -0.0000
     10 C8         19.2586    2.7337   16.9956 C.3       1 <0>        -0.1600
     11 C9         18.2690    3.1025   15.8867 C.3       1 <0>         0.1400
     12 N2         17.2071    3.9475   16.4388 N.am      1 <0>        -0.7300
     13 C10        16.2169    4.3929   15.6404 C.2       1 <0>         0.5700
     14 O1         16.2047    4.0934   14.4620 O.2       1 <0>        -0.5000
     15 C11        15.1477    5.2439   16.1964 C.ar      1 <0>        -0.1700
     16 C12        14.9367    6.5309   15.6909 C.ar      1 <0>        -0.0200
     17 C13        13.9361    7.3126   16.2109 C.ar      1 <0>        -0.1500
     18 C14        13.1218    6.8450   17.2390 C.ar      1 <0>         0.2000
     19 C15        13.3321    5.5603   17.7433 C.ar      1 <0>        -0.1400
     20 C16        14.3332    4.7675   17.2295 C.ar      1 <0>         0.0600
     21 Cl1        14.5856    3.1718   17.8649 Cl        1 <0>        -0.0100
     22 N3         12.1894    7.8150   17.5921 N.am      1 <0>        -0.6600
     23 C17        12.3143    8.9348   16.8607 C.2       1 <0>         0.5300
     24 O2         11.6363    9.9360   16.9550 O.2       1 <0>        -0.4800
     25 C18        13.4598    8.7125   15.8961 C.3       1 <0>        -0.1100
     26 C19        17.6574    1.8212   15.3126 C.3       1 <0>        -0.1600
     27 C20        18.7782    0.9078   14.8116 C.3       1 <0>        -0.0100
     28 H2         20.4654   -2.9276   17.0711 H         1 <0>         0.0600
     29 H3         20.7506   -4.5292   16.3486 H         1 <0>         0.0500
     30 H4         21.8931   -3.8776   17.5481 H         1 <0>         0.0600
     31 H5         22.5148   -2.0668   15.9723 H         1 <0>         0.0700
     32 H6         23.6843   -3.4854   14.3084 H         1 <0>         0.0600
     33 H7         23.7728   -4.2034   15.9348 H         1 <0>         0.0600
     34 H8         22.6304   -4.8549   14.7353 H         1 <0>         0.0600
     35 H9         20.6265   -3.5214   14.0656 H         1 <0>         0.0700
     36 H10        21.6803   -2.1520   13.6389 H         1 <0>         0.0700
     37 H11        19.4568   -2.1029   15.7295 H         1 <0>         0.0900
     38 H12        19.3685   -1.3850   14.1031 H         1 <0>         0.0900
     39 H13        21.2797    0.0960   14.6529 H         1 <0>         0.1300
     40 H14        21.3681   -0.6217   16.2793 H         1 <0>         0.1300
     41 H15        20.8515    2.2819   15.6176 H         1 <0>         0.1300
     42 H16        21.0261    1.5223   17.2176 H         1 <0>         0.1400
     43 H17        19.7393    3.6376   17.3700 H         1 <0>         0.1200
     44 H18        18.7266    2.2401   17.8089 H         1 <0>         0.0900
     45 H19        18.7913    3.6428   15.0970 H         1 <0>         0.1100
     46 H20        17.2169    4.1866   17.3788 H         1 <0>         0.4000
     47 H21        15.5595    6.9082   14.8932 H         1 <0>         0.1400
     48 H22        12.7068    5.1869   18.5407 H         1 <0>         0.1500
     49 H23        11.5241    7.6963   18.2879 H         1 <0>         0.4200
     50 H24        14.2554    9.4359   16.0744 H         1 <0>         0.1300
     51 H25        13.1094    8.7743   14.8658 H         1 <0>         0.1300
     52 H26        17.0913    1.3082   16.0900 H         1 <0>         0.0900
     53 H27        16.9944    2.0734   14.4850 H         1 <0>         0.1200
     54 H28        19.3427    1.4211   14.0332 H         1 <0>         0.1300
     55 H29        18.3460   -0.0061   14.4037 H         1 <0>         0.1400
@<TRIPOS>BOND
     1    1    2 1
     2    1   28 1
     3    1   29 1
     4    1   30 1
     5    2    3 1
     6    2    4 1
     7    2   31 1
     8    3   32 1
     9    3   33 1
    10    3   34 1
    11    4    5 1
    12    4   35 1
    13    4   36 1
    14    5    6 1
    15    5   37 1
    16    5   38 1
    17    6    7 1
    18    6   39 1
    19    6   40 1
    20    7    8 1
    21    7   27 1
    22    7    9 1
    23    9   10 1
    24    9   41 1
    25    9   42 1
    26   10   11 1
    27   10   43 1
    28   10   44 1
    29   11   12 1
    30   11   26 1
    31   11   45 1
    32   12   13 am
    33   12   46 1
    34   13   14 2
    35   13   15 1
    36   15   20 ar
    37   15   16 ar
    38   16   17 ar
    39   16   47 1
    40   17   25 1
    41   17   18 ar
    42   18   19 ar
    43   18   22 1
    44   19   20 ar
    45   19   48 1
    46   20   21 1
    47   22   23 am
    48   22   49 1
    49   23   24 2
    50   23   25 1
    51   25   50 1
    52   25   51 1
    53   26   27 1
    54   26   52 1
    55   26   53 1
    56   27   54 1
    57   27   55 1
##########                 Name:            smyd3_988
##########          Protonation:                 none
##########               SMILES:   COCCCC[NH+]1CCC(NC(=O)C2=CC3=C(C=C2Cl)NC(=O)C3)CC1
##########            Long Name:   NO_LONG_NAME
##########          FlexRecCode: 1
##########               Number:                 2679
##########   Ligand Source File: /proj/zinc22/users/x_andlu/OGG1/revisions/docking/targets/smyd3/db2gen/split_par
##########                 Rank:                    1
##########               Setnum:                  163
##########             Matchnum:                   16
##########                Cloud:                    1
##########        Electrostatic:           -24.915159
##########                 Gist:             0.000000
##########        Van der Waals:           -35.717037
##########  Ligand Polar Desolv:            10.057530
########## Ligand Apolar Desolv:            -2.290287
##########      Internal Energy:             0.000000
##########      Receptor Energy:             0.000000
########## Receptor Desolvation:             0.000000
########## Receptor Hydrophobic:             0.000000
##########         Total Energy:           -52.864952
##########        Ligand Charge:             1.000000
##########            Arbitrary:    +999.9990
##########        Ligand Energy:             0.000000

@<TRIPOS>MOLECULE
smyd3_988      none
   53    55     0     0     0
SMALL
USER_CHARGES

@<TRIPOS>ATOM
      1 C1         22.0226   -4.4044   17.5489 C.3       1 <0>         0.0300
      2 O1         22.0959   -3.0243   17.1852 O.3       1 <0>        -0.3900
      3 C2         22.3264   -2.8018   15.7925 C.3       1 <0>         0.0600
      4 C3         21.0106   -2.9559   15.0268 C.3       1 <0>        -0.1200
      5 C4         19.9961   -1.9348   15.5455 C.3       1 <0>        -0.1500
      6 C5         20.5439   -0.5213   15.3387 C.3       1 <0>        -0.0100
      7 N1         19.5697    0.4591   15.8367 N.4       1 <0>        -0.3800
      8 H1         19.1619    0.1189   16.6947 H         1 <0>         0.4200
      9 C6         20.2486    1.7352   16.0917 C.3       1 <0>        -0.0000
     10 C7         19.2554    2.7357   16.6868 C.3       1 <0>        -0.1600
     11 C8         18.1065    2.9555   15.6985 C.3       1 <0>         0.1400
     12 N2         17.1136    3.8536   16.2934 N.am      1 <0>        -0.7300
     13 C9         16.0069    4.1879   15.6007 C.2       1 <0>         0.5700
     14 O2         15.8325    3.7441   14.4822 O.2       1 <0>        -0.5000
     15 C10        15.0072    5.0925   16.1997 C.ar      1 <0>        -0.1700
     16 C11        14.6914    6.3048   15.5777 C.ar      1 <0>        -0.0200
     17 C12        13.7561    7.1367   16.1398 C.ar      1 <0>        -0.1500
     18 C13        13.1116    6.7938   17.3254 C.ar      1 <0>         0.2000
     19 C14        13.4266    5.5836   17.9461 C.ar      1 <0>        -0.1400
     20 C15        14.3635    4.7415   17.3914 C.ar      1 <0>         0.0600
     21 Cl1        14.7473    3.2394   18.1724 Cl        1 <0>        -0.0100
     22 N3         12.2148    7.7923   17.6908 N.am      1 <0>        -0.6600
     23 C16        12.2029    8.8136   16.8181 C.2       1 <0>         0.5300
     24 O3         11.5194    9.8130   16.8882 O.2       1 <0>        -0.4800
     25 C17        13.2025    8.4825   15.7302 C.3       1 <0>        -0.1100
     26 C18        17.4525    1.6076   15.3808 C.3       1 <0>        -0.1600
     27 C19        18.5128    0.6484   14.8358 C.3       1 <0>        -0.0100
     28 H2         21.8460   -4.4886   18.6212 H         1 <0>         0.0500
     29 H3         21.2046   -4.8799   17.0075 H         1 <0>         0.0500
     30 H4         22.9611   -4.8972   17.2952 H         1 <0>         0.0900
     31 H5         23.0491   -3.5292   15.4229 H         1 <0>         0.0500
     32 H6         22.7165   -1.7948   15.6453 H         1 <0>         0.0500
     33 H7         20.6203   -3.9630   15.1741 H         1 <0>         0.0800
     34 H8         21.1864   -2.7860   13.9646 H         1 <0>         0.0800
     35 H9         19.8202   -2.1046   16.6078 H         1 <0>         0.0900
     36 H10        19.0588   -2.0447   14.9999 H         1 <0>         0.0900
     37 H11        20.7196   -0.3515   14.2765 H         1 <0>         0.1300
     38 H12        21.4811   -0.4114   15.8842 H         1 <0>         0.1300
     39 H13        20.6438    2.1293   15.1554 H         1 <0>         0.1300
     40 H14        21.0678    1.5762   16.7929 H         1 <0>         0.1400
     41 H15        19.7611    3.6831   16.8737 H         1 <0>         0.1200
     42 H16        18.8599    2.3426   17.6233 H         1 <0>         0.0900
     43 H17        18.4946    3.3976   14.7809 H         1 <0>         0.1100
     44 H18        17.2529    4.2078   17.1856 H         1 <0>         0.4000
     45 H19        15.1821    6.5852   14.6573 H         1 <0>         0.1400
     46 H20        12.9332    5.3071   18.8661 H         1 <0>         0.1500
     47 H21        11.6605    7.7555   18.4859 H         1 <0>         0.4200
     48 H22        13.9961    9.2291   15.7004 H         1 <0>         0.1300
     49 H23        12.7053    8.4129   14.7627 H         1 <0>         0.1300
     50 H24        17.0184    1.1906   16.2895 H         1 <0>         0.0900
     51 H25        16.6703    1.7494   14.6349 H         1 <0>         0.1200
     52 H26        18.9451    1.0656   13.9263 H         1 <0>         0.1300
     53 H27        18.0505   -0.3127   14.6101 H         1 <0>         0.1400
@<TRIPOS>BOND
     1    1    2 1
     2    1   28 1
     3    1   29 1
     4    1   30 1
     5    2    3 1
     6    3    4 1
     7    3   31 1
     8    3   32 1
     9    4    5 1
    10    4   33 1
    11    4   34 1
    12    5    6 1
    13    5   35 1
    14    5   36 1
    15    6    7 1
    16    6   37 1
    17    6   38 1
    18    7    8 1
    19    7   27 1
    20    7    9 1
    21    9   10 1
    22    9   39 1
    23    9   40 1
    24   10   11 1
    25   10   41 1
    26   10   42 1
    27   11   12 1
    28   11   26 1
    29   11   43 1
    30   12   13 am
    31   12   44 1
    32   13   14 2
    33   13   15 1
    34   15   20 ar
    35   15   16 ar
    36   16   17 ar
    37   16   45 1
    38   17   25 1
    39   17   18 ar
    40   18   19 ar
    41   18   22 1
    42   19   20 ar
    43   19   46 1
    44   20   21 1
    45   22   23 am
    46   22   47 1
    47   23   24 2
    48   23   25 1
    49   25   48 1
    50   25   49 1
    51   26   27 1
    52   26   50 1
    53   26   51 1
    54   27   52 1
    55   27   53 1
##########                 Name:            smyd3_989
##########          Protonation:                 none
##########               SMILES:   O=C1CC2=C(C=C(Cl)C(C(=O)NC3CC[NH+](CC4=CSC=C4)CC3)=C2)N1
##########            Long Name:   NO_LONG_NAME
##########          FlexRecCode: 1
##########               Number:                 2683
##########   Ligand Source File: /proj/zinc22/users/x_andlu/OGG1/revisions/docking/targets/smyd3/db2gen/split_par
##########                 Rank:                    1
##########               Setnum:                   63
##########             Matchnum:                    4
##########                Cloud:                    1
##########        Electrostatic:           -23.915953
##########                 Gist:             0.000000
##########        Van der Waals:           -37.396358
##########  Ligand Polar Desolv:            10.352190
########## Ligand Apolar Desolv:            -2.789517
##########      Internal Energy:             0.000000
##########      Receptor Energy:             0.000000
########## Receptor Desolvation:             0.000000
########## Receptor Hydrophobic:             0.000000
##########         Total Energy:           -53.749638
##########        Ligand Charge:             1.000000
##########            Arbitrary:    +999.9990
##########        Ligand Energy:             0.000000

@<TRIPOS>MOLECULE
smyd3_989      none
   47    50     0     0     0
SMALL
USER_CHARGES

@<TRIPOS>ATOM
      1 O1         11.4950    9.7955   16.8150 O.2       1 <0>        -0.4800
      2 C1         12.1961    8.8074   16.7609 C.2       1 <0>         0.5300
      3 C2         13.2232    8.4912   15.6945 C.3       1 <0>        -0.1100
      4 C3         13.7903    7.1553   16.1179 C.ar      1 <0>        -0.1500
      5 C4         13.1271    6.8036   17.2906 C.ar      1 <0>         0.2000
      6 C5         13.4490    5.5997   17.9199 C.ar      1 <0>        -0.1400
      7 C6         14.4109    4.7723   17.3863 C.ar      1 <0>         0.0600
      8 Cl1        14.8030    3.2778   18.1778 Cl        1 <0>        -0.0100
      9 C7         15.0732    5.1320   16.2075 C.ar      1 <0>        -0.1700
     10 C8         16.0999    4.2432   15.6310 C.2       1 <0>         0.5700
     11 O2         15.9560    3.7949   14.5099 O.2       1 <0>        -0.5000
     12 N1         17.1974    3.9281   16.3470 N.am      1 <0>        -0.7300
     13 C9         18.2170    3.0455   15.7744 C.3       1 <0>         0.1400
     14 C10        17.8899    1.5909   16.1241 C.3       1 <0>        -0.1600
     15 C11        19.0009    0.6823   15.5932 C.3       1 <0>        -0.0100
     16 N2         20.2817    1.0593   16.2033 N.4       1 <0>        -0.3800
     17 H1         20.2017    1.0077   17.2078 H         1 <0>         0.4200
     18 C12        21.3296    0.1354   15.7490 C.3       1 <0>         0.0600
     19 C13        21.2519   -1.1424   16.5440 C.2       1 <0>        -0.1700
     20 C14        22.0825   -2.1659   16.3402 C.2       1 <0>        -0.1900
     21 S1         21.6918   -3.4729   17.4506 S.3       1 <0>         0.1900
     22 C15        20.3776   -2.5313   18.1435 C.2       1 <0>        -0.2000
     23 C16        20.3092   -1.3452   17.5372 C.2       1 <0>        -0.1400
     24 C17        20.6358    2.4290   15.8118 C.3       1 <0>        -0.0000
     25 C18        19.5887    3.4049   16.3527 C.3       1 <0>        -0.1600
     26 C19        14.7505    6.3381   15.5768 C.ar      1 <0>        -0.0200
     27 N3         12.2066    7.7878   17.6355 N.am      1 <0>        -0.6600
     28 H2         14.0049    9.2507   15.6798 H         1 <0>         0.1300
     29 H3         12.7474    8.4120   14.7171 H         1 <0>         0.1300
     30 H4         12.9413    5.3164   18.8300 H         1 <0>         0.1500
     31 H5         17.3123    4.2858   17.2412 H         1 <0>         0.4000
     32 H6         18.2356    3.1646   14.6911 H         1 <0>         0.1100
     33 H7         17.8196    1.4837   17.2065 H         1 <0>         0.0900
     34 H8         16.9403    1.3114   15.6675 H         1 <0>         0.1200
     35 H9         19.0693    0.7889   14.5107 H         1 <0>         0.1300
     36 H10        18.7717   -0.3539   15.8420 H         1 <0>         0.1400
     37 H11        21.1857   -0.0854   14.6913 H         1 <0>         0.1400
     38 H12        22.3072    0.5949   15.8945 H         1 <0>         0.1400
     39 H13        22.8752   -2.1879   15.6070 H         1 <0>         0.1800
     40 H14        19.7255   -2.8631   18.9379 H         1 <0>         0.1800
     41 H15        19.5741   -0.5993   17.8015 H         1 <0>         0.1500
     42 H16        20.6693    2.4985   14.7246 H         1 <0>         0.1300
     43 H17        21.6136    2.6817   16.2219 H         1 <0>         0.1400
     44 H18        19.8524    4.4211   16.0595 H         1 <0>         0.1200
     45 H19        19.5544    3.3372   17.4401 H         1 <0>         0.0900
     46 H20        15.2556    6.6251   14.6663 H         1 <0>         0.1400
     47 H21        11.6366    7.7430   18.4191 H         1 <0>         0.4200
@<TRIPOS>BOND
     1    1    2 2
     2    2   27 am
     3    2    3 1
     4    3    4 1
     5    3   28 1
     6    3   29 1
     7    4   26 ar
     8    4    5 ar
     9    5    6 ar
    10    5   27 1
    11    6    7 ar
    12    6   30 1
    13    7    8 1
    14    7    9 ar
    15    9   10 1
    16    9   26 ar
    17   10   11 2
    18   10   12 am
    19   12   13 1
    20   12   31 1
    21   13   25 1
    22   13   14 1
    23   13   32 1
    24   14   15 1
    25   14   33 1
    26   14   34 1
    27   15   16 1
    28   15   35 1
    29   15   36 1
    30   16   17 1
    31   16   18 1
    32   16   24 1
    33   18   19 1
    34   18   37 1
    35   18   38 1
    36   19   23 1
    37   19   20 2
    38   20   21 1
    39   20   39 1
    40   21   22 1
    41   22   23 2
    42   22   40 1
    43   23   41 1
    44   24   25 1
    45   24   42 1
    46   24   43 1
    47   25   44 1
    48   25   45 1
    49   26   46 1
    50   27   47 1
##########                 Name:            smyd3_990
##########          Protonation:                 none
##########               SMILES:   O=C1CC2=CC(C(=O)NC3CC[NH+](CC4CCCC4)CC3)=C(Cl)C=C2N1
##########            Long Name:   NO_LONG_NAME
##########          FlexRecCode: 1
##########               Number:                 2686
##########   Ligand Source File: /proj/zinc22/users/x_andlu/OGG1/revisions/docking/targets/smyd3/db2gen/split_par
##########                 Rank:                    1
##########               Setnum:                   27
##########             Matchnum:                    4
##########                Cloud:                    1
##########        Electrostatic:           -27.365185
##########                 Gist:             0.000000
##########        Van der Waals:           -31.111364
##########  Ligand Polar Desolv:            10.449492
########## Ligand Apolar Desolv:            -2.971584
##########      Internal Energy:             0.000000
##########      Receptor Energy:             0.000000
########## Receptor Desolvation:             0.000000
########## Receptor Hydrophobic:             0.000000
##########         Total Energy:           -50.998638
##########        Ligand Charge:             1.000000
##########            Arbitrary:    +999.9990
##########        Ligand Energy:             0.000000

@<TRIPOS>MOLECULE
smyd3_990      none
   53    56     0     0     0
SMALL
USER_CHARGES

@<TRIPOS>ATOM
      1 O1         11.4487    9.8104   16.9783 O.2       1 <0>        -0.4800
      2 C1         12.1897    8.8551   16.8828 C.2       1 <0>         0.5300
      3 C2         13.3399    8.7035   15.9101 C.3       1 <0>        -0.1100
      4 C3         13.9093    7.3393   16.2269 C.ar      1 <0>        -0.1500
      5 C4         14.9544    6.6224   15.7023 C.ar      1 <0>        -0.0200
      6 C5         15.2529    5.3539   16.2118 C.ar      1 <0>        -0.1700
      7 C6         16.3747    4.5744   15.6549 C.2       1 <0>         0.5700
      8 O2         16.3787    4.2706   14.4776 O.2       1 <0>        -0.5000
      9 N1         17.3953    4.1989   16.4511 N.am      1 <0>        -0.7300
     10 C7         18.5094    3.4248   15.8981 C.3       1 <0>         0.1400
     11 C8         19.5252    3.1270   17.0048 C.3       1 <0>        -0.1600
     12 C9         20.6465    2.2533   16.4386 C.3       1 <0>        -0.0000
     13 N2         20.0842    0.9937   15.9367 N.4       1 <0>        -0.3800
     14 H1         19.5839    0.5301   16.6802 H         1 <0>         0.4200
     15 C10        21.1725    0.1267   15.4658 C.3       1 <0>        -0.0000
     16 C11        20.5880   -1.1868   14.9424 C.3       1 <0>        -0.1200
     17 C12        19.9190   -1.9839   16.0944 C.3       1 <0>        -0.1400
     18 C13        19.9515   -3.4381   15.5619 C.3       1 <0>        -0.1300
     19 C14        21.3077   -3.5477   14.8350 C.3       1 <0>        -0.1300
     20 C15        21.7124   -2.1163   14.4412 C.3       1 <0>        -0.1100
     21 C16        19.1641    1.2682   14.8266 C.3       1 <0>        -0.0100
     22 C17        17.9847    2.1025   15.3312 C.3       1 <0>        -0.1600
     23 C18        14.4758    4.8281   17.2491 C.ar      1 <0>         0.0600
     24 Cl1        14.8323    3.2522   17.8844 Cl        1 <0>        -0.0100
     25 C19        13.4327    5.5591   17.7719 C.ar      1 <0>        -0.1400
     26 C20        13.1350    6.8244   17.2638 C.ar      1 <0>         0.2000
     27 N3         12.1439    7.7331   17.6200 N.am      1 <0>        -0.6600
     28 H2         14.0878    9.4783   16.0788 H         1 <0>         0.1300
     29 H3         12.9783    8.7374   14.8823 H         1 <0>         0.1300
     30 H4         15.5450    7.0358   14.8982 H         1 <0>         0.1400
     31 H5         17.3921    4.4412   17.3904 H         1 <0>         0.4000
     32 H6         18.9915    3.9958   15.1047 H         1 <0>         0.1100
     33 H7         19.0304    2.6007   17.8209 H         1 <0>         0.0900
     34 H8         19.9445    4.0622   17.3760 H         1 <0>         0.1200
     35 H9         21.3716    2.0396   17.2239 H         1 <0>         0.1400
     36 H10        21.1404    2.7810   15.6226 H         1 <0>         0.1300
     37 H11        21.8537   -0.0821   16.2909 H         1 <0>         0.1300
     38 H12        21.7155    0.6277   14.6645 H         1 <0>         0.1300
     39 H13        19.8698   -0.9929   14.1457 H         1 <0>         0.1000
     40 H14        18.8924   -1.6527   16.2510 H         1 <0>         0.0700
     41 H15        20.4989   -1.8956   17.0129 H         1 <0>         0.0800
     42 H16        19.1305   -3.6077   14.8652 H         1 <0>         0.0700
     43 H17        19.9027   -4.1478   16.3876 H         1 <0>         0.0800
     44 H18        22.0553   -3.9769   15.5022 H         1 <0>         0.0700
     45 H19        21.2045   -4.1661   13.9434 H         1 <0>         0.0700
     46 H20        22.6564   -1.8508   14.9171 H         1 <0>         0.0700
     47 H21        21.8062   -2.0396   13.3579 H         1 <0>         0.0800
     48 H22        19.6908    1.8171   14.0460 H         1 <0>         0.1300
     49 H23        18.7940    0.3266   14.4209 H         1 <0>         0.1300
     50 H24        17.4579    1.5549   16.1127 H         1 <0>         0.0900
     51 H25        17.3022    2.3056   14.5058 H         1 <0>         0.1200
     52 H26        12.8395    5.1496   18.5761 H         1 <0>         0.1500
     53 H27        11.4932    7.5746   18.3217 H         1 <0>         0.4200
@<TRIPOS>BOND
     1    1    2 2
     2    2   27 am
     3    2    3 1
     4    3    4 1
     5    3   28 1
     6    3   29 1
     7    4   26 ar
     8    4    5 ar
     9    5    6 ar
    10    5   30 1
    11    6    7 1
    12    6   23 ar
    13    7    8 2
    14    7    9 am
    15    9   10 1
    16    9   31 1
    17   10   22 1
    18   10   11 1
    19   10   32 1
    20   11   12 1
    21   11   33 1
    22   11   34 1
    23   12   13 1
    24   12   35 1
    25   12   36 1
    26   13   14 1
    27   13   15 1
    28   13   21 1
    29   15   16 1
    30   15   37 1
    31   15   38 1
    32   16   20 1
    33   16   17 1
    34   16   39 1
    35   17   18 1
    36   17   40 1
    37   17   41 1
    38   18   19 1
    39   18   42 1
    40   18   43 1
    41   19   20 1
    42   19   44 1
    43   19   45 1
    44   20   46 1
    45   20   47 1
    46   21   22 1
    47   21   48 1
    48   21   49 1
    49   22   50 1
    50   22   51 1
    51   23   24 1
    52   23   25 ar
    53   25   26 ar
    54   25   52 1
    55   26   27 1
    56   27   53 1
##########                 Name:            smyd3_991
##########          Protonation:                 none
##########               SMILES:   O=C1CC2=CC(C(=O)NC3CC[NH+](CC4CCOC4)CC3)=C(Cl)C=C2N1
##########            Long Name:   NO_LONG_NAME
##########          FlexRecCode: 1
##########               Number:                 2689
##########   Ligand Source File: /proj/zinc22/users/x_andlu/OGG1/revisions/docking/targets/smyd3/db2gen/split_par
##########                 Rank:                    1
##########               Setnum:                   31
##########             Matchnum:                    1
##########                Cloud:                    1
##########        Electrostatic:           -26.993490
##########                 Gist:             0.000000
##########        Van der Waals:           -34.192089
##########  Ligand Polar Desolv:             9.726161
########## Ligand Apolar Desolv:            -2.051170
##########      Internal Energy:             0.000000
##########      Receptor Energy:             0.000000
########## Receptor Desolvation:             0.000000
########## Receptor Hydrophobic:             0.000000
##########         Total Energy:           -53.510586
##########        Ligand Charge:             1.000000
##########            Arbitrary:    +999.9990
##########        Ligand Energy:             0.000000

@<TRIPOS>MOLECULE
smyd3_991      none
   51    54     0     0     0
SMALL
USER_CHARGES

@<TRIPOS>ATOM
      1 O1         11.6925    9.9060   17.1337 O.2       1 <0>        -0.4800
      2 C1         12.3555    8.8982   17.0086 C.2       1 <0>         0.5300
      3 C2         13.5014    8.6903   16.0413 C.3       1 <0>        -0.1100
      4 C3         13.9554    7.2738   16.3112 C.ar      1 <0>        -0.1500
      5 C4         14.9457    6.4947   15.7693 C.ar      1 <0>        -0.0200
      6 C5         15.1351    5.1882   16.2329 C.ar      1 <0>        -0.1700
      7 C6         16.1933    4.3398   15.6526 C.2       1 <0>         0.5700
      8 O2         16.1810    4.0799   14.4649 O.2       1 <0>        -0.5000
      9 N1         17.1735    3.8527   16.4390 N.am      1 <0>        -0.7300
     10 C7         18.2243    3.0102   15.8626 C.3       1 <0>         0.1400
     11 C8         17.5954    1.7582   15.2443 C.3       1 <0>        -0.1600
     12 C9         18.7041    0.8446   14.7171 C.3       1 <0>        -0.0100
     13 N2         19.5913    0.4564   15.8200 N.4       1 <0>        -0.3900
     14 H1         19.0498    0.0093   16.5445 H         1 <0>         0.4200
     15 C10        20.6070   -0.4803   15.3211 C.3       1 <0>        -0.0000
     16 C11        19.9194   -1.7246   14.7556 C.3       1 <0>        -0.1600
     17 C12        20.9676   -2.7820   14.3430 C.3       1 <0>        -0.1500
     18 C13        20.6449   -3.9994   15.2376 C.3       1 <0>         0.0400
     19 O3         19.2539   -3.8390   15.5913 O.3       1 <0>        -0.3600
     20 C14        19.0845   -2.4261   15.8499 C.3       1 <0>         0.0300
     21 C15        20.2527    1.6461   16.3694 C.3       1 <0>        -0.0000
     22 C16        19.2040    2.5895   16.9621 C.3       1 <0>        -0.1600
     23 C17        14.3096    4.6907   17.2465 C.ar      1 <0>         0.0600
     24 Cl1        14.5348    3.0711   17.8293 Cl        1 <0>        -0.0100
     25 C18        13.3188    5.4819   17.7834 C.ar      1 <0>        -0.1400
     26 C19        13.1297    6.7850   17.3208 C.ar      1 <0>         0.2000
     27 N3         12.2108    7.7571   17.7023 N.am      1 <0>        -0.6600
     28 H2         14.3070    9.3955   16.2460 H         1 <0>         0.1300
     29 H3         13.1560    8.7915   15.0124 H         1 <0>         0.1300
     30 H4         15.5773    6.8885   14.9867 H         1 <0>         0.1400
     31 H5         17.1833    4.0601   17.3865 H         1 <0>         0.4000
     32 H6         18.7578    3.5681   15.0931 H         1 <0>         0.1100
     33 H7         17.0184    1.2285   16.0024 H         1 <0>         0.0900
     34 H8         16.9396    2.0481   14.4234 H         1 <0>         0.1200
     35 H9         19.2793    1.3748   13.9581 H         1 <0>         0.1300
     36 H10        18.2594   -0.0483   14.2776 H         1 <0>         0.1400
     37 H11        21.1905    0.0008   14.5360 H         1 <0>         0.1400
     38 H12        21.2670   -0.7699   16.1387 H         1 <0>         0.1400
     39 H13        19.2897   -1.4591   13.9063 H         1 <0>         0.1100
     40 H14        20.8545   -3.0411   13.2902 H         1 <0>         0.0900
     41 H15        21.9757   -2.4173   14.5395 H         1 <0>         0.0900
     42 H16        20.7912   -4.9267   14.6837 H         1 <0>         0.1100
     43 H17        21.2677   -3.9884   16.1321 H         1 <0>         0.0700
     44 H18        19.4665   -2.1735   16.8390 H         1 <0>         0.0700
     45 H19        18.0347   -2.1455   15.7646 H         1 <0>         0.1000
     46 H20        20.7950    2.1592   15.5752 H         1 <0>         0.1300
     47 H21        20.9520    1.3448   17.1495 H         1 <0>         0.1400
     48 H22        19.6970    3.4729   17.3679 H         1 <0>         0.1200
     49 H23        18.6611    2.0783   17.7571 H         1 <0>         0.1000
     50 H24        12.6850    5.0921   18.5662 H         1 <0>         0.1500
     51 H25        11.5408    7.6256   18.3913 H         1 <0>         0.4200
@<TRIPOS>BOND
     1    1    2 2
     2    2   27 am
     3    2    3 1
     4    3    4 1
     5    3   28 1
     6    3   29 1
     7    4   26 ar
     8    4    5 ar
     9    5    6 ar
    10    5   30 1
    11    6    7 1
    12    6   23 ar
    13    7    8 2
    14    7    9 am
    15    9   10 1
    16    9   31 1
    17   10   22 1
    18   10   11 1
    19   10   32 1
    20   11   12 1
    21   11   33 1
    22   11   34 1
    23   12   13 1
    24   12   35 1
    25   12   36 1
    26   13   14 1
    27   13   15 1
    28   13   21 1
    29   15   16 1
    30   15   37 1
    31   15   38 1
    32   16   20 1
    33   16   17 1
    34   16   39 1
    35   17   18 1
    36   17   40 1
    37   17   41 1
    38   18   19 1
    39   18   42 1
    40   18   43 1
    41   19   20 1
    42   20   44 1
    43   20   45 1
    44   21   22 1
    45   21   46 1
    46   21   47 1
    47   22   48 1
    48   22   49 1
    49   23   24 1
    50   23   25 ar
    51   25   26 ar
    52   25   50 1
    53   26   27 1
    54   27   51 1
##########                 Name:            smyd3_992
##########          Protonation:                 none
##########               SMILES:   O=C1CC2=CC(C(=O)NC3CC[NH+](CC4CCCO4)CC3)=C(Cl)C=C2N1
##########            Long Name:   NO_LONG_NAME
##########          FlexRecCode: 1
##########               Number:                 2693
##########   Ligand Source File: /proj/zinc22/users/x_andlu/OGG1/revisions/docking/targets/smyd3/db2gen/split_par
##########                 Rank:                    1
##########               Setnum:                   23
##########             Matchnum:                    1
##########                Cloud:                    1
##########        Electrostatic:           -25.588280
##########                 Gist:             0.000000
##########        Van der Waals:           -35.097095
##########  Ligand Polar Desolv:             9.146625
########## Ligand Apolar Desolv:            -2.250107
##########      Internal Energy:             0.000000
##########      Receptor Energy:             0.000000
########## Receptor Desolvation:             0.000000
########## Receptor Hydrophobic:             0.000000
##########         Total Energy:           -53.788857
##########        Ligand Charge:             1.000000
##########            Arbitrary:    +999.9990
##########        Ligand Energy:             0.000000

@<TRIPOS>MOLECULE
smyd3_992      none
   51    54     0     0     0
SMALL
USER_CHARGES

@<TRIPOS>ATOM
      1 O1         11.6293    9.9968   16.9832 O.2       1 <0>        -0.4800
      2 C1         12.2849    8.9799   16.9002 C.2       1 <0>         0.5300
      3 C2         13.2591    8.6260   15.7966 C.3       1 <0>        -0.1100
      4 C3         13.7832    7.2649   16.1943 C.ar      1 <0>        -0.1500
      5 C4         14.6875    6.4106   15.6163 C.ar      1 <0>        -0.0200
      6 C5         14.9803    5.1880   16.2304 C.ar      1 <0>        -0.1700
      7 C6         15.9512    4.2619   15.6173 C.2       1 <0>         0.5700
      8 O2         15.7542    3.8271   14.4990 O.2       1 <0>        -0.5000
      9 N1         17.0569    3.8980   16.2967 N.am      1 <0>        -0.7300
     10 C7         18.0213    2.9784   15.6879 C.3       1 <0>         0.1400
     11 C8         19.1745    2.7261   16.6634 C.3       1 <0>        -0.1600
     12 C9         20.1365    1.7041   16.0537 C.3       1 <0>        -0.0100
     13 N2         19.4238    0.4463   15.8004 N.4       1 <0>        -0.3800
     14 H1         19.0166    0.1124   16.6611 H         1 <0>         0.4300
     15 C10        20.3684   -0.5555   15.2882 C.3       1 <0>        -0.0200
     16 C11        21.1548   -1.1579   16.4542 C.3       1 <0>         0.0500
     17 C12        22.4295   -1.8493   15.9245 C.3       1 <0>        -0.1500
     18 C13        22.5094   -3.1197   16.8141 C.3       1 <0>        -0.1600
     19 C14        21.0054   -3.4355   17.0116 C.3       1 <0>         0.0500
     20 O3         20.3629   -2.1546   17.1111 O.3       1 <0>        -0.3900
     21 C15        18.3620    0.6659   14.8112 C.3       1 <0>        -0.0000
     22 C16        17.3315    1.6478   15.3731 C.3       1 <0>        -0.1600
     23 C17        14.3412    4.8481   17.4272 C.ar      1 <0>         0.0600
     24 Cl1        14.6912    3.3307   18.1945 Cl        1 <0>        -0.0100
     25 C18        13.4395    5.7158   18.0014 C.ar      1 <0>        -0.1400
     26 C19        13.1474    6.9355   17.3889 C.ar      1 <0>         0.2000
     27 N3         12.2826    7.9561   17.7699 N.am      1 <0>        -0.6600
     28 H2         14.0715    9.3517   15.7570 H         1 <0>         0.1300
     29 H3         12.7461    8.5725   14.8366 H         1 <0>         0.1300
     30 H4         15.1718    6.6808   14.6895 H         1 <0>         0.1400
     31 H5         17.2142    4.2450   17.1889 H         1 <0>         0.4000
     32 H6         18.4109    3.4138   14.7676 H         1 <0>         0.1100
     33 H7         19.7051    3.6599   16.8490 H         1 <0>         0.1200
     34 H8         18.7788    2.3386   17.6022 H         1 <0>         0.0900
     35 H9         20.9590    1.5223   16.7456 H         1 <0>         0.1400
     36 H10        20.5316    2.0927   15.1151 H         1 <0>         0.1300
     37 H11        19.8186   -1.3442   14.7748 H         1 <0>         0.1300
     38 H12        21.0589   -0.0808   14.5911 H         1 <0>         0.1400
     39 H13        21.4246   -0.3743   17.1622 H         1 <0>         0.1100
     40 H14        22.3172   -2.1178   14.8740 H         1 <0>         0.0900
     41 H15        23.3044   -1.2162   16.0728 H         1 <0>         0.1000
     42 H16        22.9935   -2.9028   17.7664 H         1 <0>         0.0900
     43 H17        23.0165   -3.9324   16.2940 H         1 <0>         0.1000
     44 H18        20.8557   -4.0060   17.9283 H         1 <0>         0.1000
     45 H19        20.6189   -3.9871   16.1545 H         1 <0>         0.0700
     46 H20        17.8741   -0.2824   14.5858 H         1 <0>         0.1400
     47 H21        18.7948    1.0766   13.8991 H         1 <0>         0.1300
     48 H22        16.8977    1.2380   16.2851 H         1 <0>         0.0900
     49 H23        16.5448    1.8111   14.6364 H         1 <0>         0.1200
     50 H24        12.9529    5.4497   18.9281 H         1 <0>         0.1500
     51 H25        11.7393    7.9314   18.5731 H         1 <0>         0.4200
@<TRIPOS>BOND
     1    1    2 2
     2    2   27 am
     3    2    3 1
     4    3    4 1
     5    3   28 1
     6    3   29 1
     7    4   26 ar
     8    4    5 ar
     9    5    6 ar
    10    5   30 1
    11    6    7 1
    12    6   23 ar
    13    7    8 2
    14    7    9 am
    15    9   10 1
    16    9   31 1
    17   10   22 1
    18   10   11 1
    19   10   32 1
    20   11   12 1
    21   11   33 1
    22   11   34 1
    23   12   13 1
    24   12   35 1
    25   12   36 1
    26   13   14 1
    27   13   15 1
    28   13   21 1
    29   15   16 1
    30   15   37 1
    31   15   38 1
    32   16   20 1
    33   16   17 1
    34   16   39 1
    35   17   18 1
    36   17   40 1
    37   17   41 1
    38   18   19 1
    39   18   42 1
    40   18   43 1
    41   19   20 1
    42   19   44 1
    43   19   45 1
    44   21   22 1
    45   21   46 1
    46   21   47 1
    47   22   48 1
    48   22   49 1
    49   23   24 1
    50   23   25 ar
    51   25   26 ar
    52   25   50 1
    53   26   27 1
    54   27   51 1
##########                 Name:            smyd3_993
##########          Protonation:                 none
##########               SMILES:   O=C1CC2=CC(C(=O)NC3CC[NH+](CC4=CSC=N4)CC3)=C(Cl)C=C2N1
##########            Long Name:   NO_LONG_NAME
##########          FlexRecCode: 1
##########               Number:                 2695
##########   Ligand Source File: /proj/zinc22/users/x_andlu/OGG1/revisions/docking/targets/smyd3/db2gen/split_par
##########                 Rank:                    1
##########               Setnum:                    4
##########             Matchnum:                    3
##########                Cloud:                    1
##########        Electrostatic:           -24.641451
##########                 Gist:             0.000000
##########        Van der Waals:           -36.873497
##########  Ligand Polar Desolv:            10.714619
########## Ligand Apolar Desolv:            -2.249059
##########      Internal Energy:             0.000000
##########      Receptor Energy:             0.000000
########## Receptor Desolvation:             0.000000
########## Receptor Hydrophobic:             0.000000
##########         Total Energy:           -53.049385
##########        Ligand Charge:             1.000000
##########            Arbitrary:    +999.9990
##########        Ligand Energy:             0.000000

@<TRIPOS>MOLECULE
smyd3_993      none
   46    49     0     0     0
SMALL
USER_CHARGES

@<TRIPOS>ATOM
      1 O1         11.5653    9.7996   16.8195 O.2       1 <0>        -0.4800
      2 C1         12.2682    8.8133   16.7573 C.2       1 <0>         0.5300
      3 C2         13.3081    8.5159   15.6980 C.3       1 <0>        -0.1100
      4 C3         13.8724    7.1740   16.1062 C.ar      1 <0>        -0.1500
      5 C4         14.8396    6.3671   15.5632 C.ar      1 <0>        -0.0200
      6 C5         15.1566    5.1509   16.1780 C.ar      1 <0>        -0.1700
      7 C6         16.1953    4.2755   15.6023 C.2       1 <0>         0.5700
      8 O2         16.0705    3.8465   14.4715 O.2       1 <0>        -0.5000
      9 N1         17.2824    3.9514   16.3299 N.am      1 <0>        -0.7300
     10 C7         18.3139    3.0821   15.7583 C.3       1 <0>         0.1400
     11 C8         17.9869    1.6207   16.0783 C.3       1 <0>        -0.1600
     12 C9         19.1081    0.7241   15.5484 C.3       1 <0>        -0.0000
     13 N2         20.3776    1.0937   16.1857 N.4       1 <0>        -0.3800
     14 H1         20.2820    1.0255   17.1878 H         1 <0>         0.4200
     15 C10        21.4354    0.1805   15.7328 C.3       1 <0>         0.0800
     16 C11        21.3482   -1.1111   16.5041 C.2       1 <0>        -0.0000
     17 C12        22.1843   -2.1333   16.2992 C.2       1 <0>        -0.2400
     18 S1         21.7347   -3.4311   17.4031 S.3       1 <0>         0.2200
     19 C13        20.4622   -2.4732   18.0246 C.2       1 <0>         0.0300
     20 N3         20.4377   -1.3272   17.4321 N.2       1 <0>        -0.4700
     21 C14        20.7340    2.4709   15.8238 C.3       1 <0>        -0.0000
     22 C15        19.6755    3.4347   16.3642 C.3       1 <0>        -0.1600
     23 C16        14.4773    4.7686   17.3394 C.ar      1 <0>         0.0600
     24 Cl1        14.8572    3.2586   18.1069 Cl        1 <0>        -0.0100
     25 C17        13.5123    5.5893   17.8788 C.ar      1 <0>        -0.1400
     26 C18        13.1960    6.8024   17.2656 C.ar      1 <0>         0.2000
     27 N4         12.2700    7.7798   17.6154 N.am      1 <0>        -0.6600
     28 H2         14.0887    9.2766   15.7046 H         1 <0>         0.1300
     29 H3         12.8439    8.4519   14.7140 H         1 <0>         0.1300
     30 H4         15.3548    6.6695   14.6634 H         1 <0>         0.1400
     31 H5         17.3820    4.2938   17.2321 H         1 <0>         0.4000
     32 H6         18.3500    3.2194   14.6777 H         1 <0>         0.1100
     33 H7         17.0454    1.3458   15.6025 H         1 <0>         0.1200
     34 H8         17.8996    1.4951   17.1575 H         1 <0>         0.0900
     35 H9         18.8779   -0.3170   15.7750 H         1 <0>         0.1400
     36 H10        19.1940    0.8501   14.4692 H         1 <0>         0.1400
     37 H11        21.3094   -0.0222   14.6693 H         1 <0>         0.1500
     38 H12        22.4091    0.6401   15.9022 H         1 <0>         0.1500
     39 H13        22.9935   -2.1588   15.5846 H         1 <0>         0.1900
     40 H14        19.7780   -2.7824   18.8007 H         1 <0>         0.2100
     41 H15        21.7044    2.7194   16.2537 H         1 <0>         0.1300
     42 H16        20.7845    2.5594   14.7385 H         1 <0>         0.1300
     43 H17        19.6239    3.3472   17.4495 H         1 <0>         0.0900
     44 H18        19.9416    4.4565   16.0937 H         1 <0>         0.1200
     45 H19        12.9946    5.2908   18.7785 H         1 <0>         0.1500
     46 H20        11.6910    7.7216   18.3915 H         1 <0>         0.4200
@<TRIPOS>BOND
     1    1    2 2
     2    2   27 am
     3    2    3 1
     4    3    4 1
     5    3   28 1
     6    3   29 1
     7    4   26 ar
     8    4    5 ar
     9    5    6 ar
    10    5   30 1
    11    6    7 1
    12    6   23 ar
    13    7    8 2
    14    7    9 am
    15    9   10 1
    16    9   31 1
    17   10   22 1
    18   10   11 1
    19   10   32 1
    20   11   12 1
    21   11   33 1
    22   11   34 1
    23   12   13 1
    24   12   35 1
    25   12   36 1
    26   13   14 1
    27   13   15 1
    28   13   21 1
    29   15   16 1
    30   15   37 1
    31   15   38 1
    32   16   20 1
    33   16   17 2
    34   17   18 1
    35   17   39 1
    36   18   19 1
    37   19   20 2
    38   19   40 1
    39   21   22 1
    40   21   41 1
    41   21   42 1
    42   22   43 1
    43   22   44 1
    44   23   24 1
    45   23   25 ar
    46   25   26 ar
    47   25   45 1
    48   26   27 1
    49   27   46 1
##########                 Name:            smyd3_994
##########          Protonation:                 none
##########               SMILES:   O=C1CC2=C(C=C(Cl)C(C(=O)NC3CC[NH+](CC4=CC=CS4)CC3)=C2)N1
##########            Long Name:   NO_LONG_NAME
##########          FlexRecCode: 1
##########               Number:                 2704
##########   Ligand Source File: /proj/zinc22/users/x_andlu/OGG1/revisions/docking/targets/smyd3/db2gen/split_par
##########                 Rank:                    1
##########               Setnum:                   79
##########             Matchnum:                    6
##########                Cloud:                    1
##########        Electrostatic:           -23.927301
##########                 Gist:             0.000000
##########        Van der Waals:           -36.923344
##########  Ligand Polar Desolv:            10.570911
########## Ligand Apolar Desolv:            -2.874406
##########      Internal Energy:             0.000000
##########      Receptor Energy:             0.000000
########## Receptor Desolvation:             0.000000
########## Receptor Hydrophobic:             0.000000
##########         Total Energy:           -53.154140
##########        Ligand Charge:             1.000000
##########            Arbitrary:    +999.9990
##########        Ligand Energy:             0.000000

@<TRIPOS>MOLECULE
smyd3_994      none
   47    50     0     0     0
SMALL
USER_CHARGES

@<TRIPOS>ATOM
      1 O1         11.4715    9.7810   16.8533 O.2       1 <0>        -0.4800
      2 C1         12.1763    8.7959   16.7919 C.2       1 <0>         0.5300
      3 C2         13.1926    8.4833   15.7143 C.3       1 <0>        -0.1100
      4 C3         13.7703    7.1503   16.1321 C.ar      1 <0>        -0.1500
      5 C4         13.1220    6.7968   17.3126 C.ar      1 <0>         0.2000
      6 C5         13.4562    5.5946   17.9389 C.ar      1 <0>        -0.1400
      7 C6         14.4107    4.7676   17.3913 C.ar      1 <0>         0.0600
      8 Cl1        14.8126    3.2718   18.1752 Cl        1 <0>        -0.0100
      9 C7         15.0620    5.1321   16.2079 C.ar      1 <0>        -0.1700
     10 C8         16.0897    4.2499   15.6233 C.2       1 <0>         0.5700
     11 O2         15.9402    3.8013   14.5031 O.2       1 <0>        -0.5000
     12 N1         17.1945    3.9412   16.3310 N.am      1 <0>        -0.7300
     13 C9         18.2153    3.0652   15.7504 C.3       1 <0>         0.1400
     14 C10        19.5890    3.4328   16.3187 C.3       1 <0>        -0.1600
     15 C11        20.6383    2.4650   15.7679 C.3       1 <0>        -0.0000
     16 N2         20.2966    1.0923   16.1595 N.4       1 <0>        -0.3900
     17 H1         20.2247    1.0384   17.1645 H         1 <0>         0.4200
     18 C12        21.3472    0.1763   15.6954 C.3       1 <0>         0.0800
     19 C13        21.2783   -1.1070   16.4823 C.2       1 <0>        -0.2900
     20 C14        20.3952   -1.3714   17.4464 C.2       1 <0>        -0.0700
     21 C15        20.5249   -2.6199   18.0298 C.2       1 <0>        -0.1500
     22 C16        21.5132   -3.3696   17.5395 C.2       1 <0>        -0.1700
     23 S1         22.3452   -2.4884   16.2648 S.3       1 <0>         0.1500
     24 C17        19.0138    0.7077   15.5588 C.3       1 <0>        -0.0100
     25 C18        17.9019    1.6079   16.1015 C.3       1 <0>        -0.1600
     26 C19        14.7274    6.3365   15.5805 C.ar      1 <0>        -0.0200
     27 N3         12.2013    7.7772   17.6672 N.am      1 <0>        -0.6600
     28 H2         13.9706    9.2463   15.6899 H         1 <0>         0.1300
     29 H3         12.7059    8.4012   14.7423 H         1 <0>         0.1300
     30 H4         12.9603    5.3100   18.8552 H         1 <0>         0.1500
     31 H5         17.3137    4.2988   17.2247 H         1 <0>         0.4000
     32 H6         18.2250    3.1851   14.6670 H         1 <0>         0.1100
     33 H7         19.5638    3.3621   17.4061 H         1 <0>         0.0900
     34 H8         19.8439    4.4514   16.0260 H         1 <0>         0.1200
     35 H9         21.6176    2.7240   16.1704 H         1 <0>         0.1400
     36 H10        20.6624    2.5369   14.6805 H         1 <0>         0.1400
     37 H11        21.2005   -0.0382   14.6368 H         1 <0>         0.1400
     38 H12        22.3232    0.6395   15.8403 H         1 <0>         0.1400
     39 H13        19.6368   -0.6646   17.7492 H         1 <0>         0.1500
     40 H14        19.8748   -2.9614   18.8218 H         1 <0>         0.1600
     41 H15        21.7616   -4.3669   17.8710 H         1 <0>         0.1800
     42 H16        19.0730    0.8169   14.4759 H         1 <0>         0.1300
     43 H17        18.7937   -0.3307   15.8069 H         1 <0>         0.1300
     44 H18        17.8416    1.4993   17.1844 H         1 <0>         0.0900
     45 H19        16.9501    1.3222   15.6536 H         1 <0>         0.1200
     46 H20        15.2207    6.6250   14.6640 H         1 <0>         0.1400
     47 H21        11.6402    7.7304   18.4571 H         1 <0>         0.4200
@<TRIPOS>BOND
     1    1    2 2
     2    2   27 am
     3    2    3 1
     4    3    4 1
     5    3   28 1
     6    3   29 1
     7    4   26 ar
     8    4    5 ar
     9    5    6 ar
    10    5   27 1
    11    6    7 ar
    12    6   30 1
    13    7    8 1
    14    7    9 ar
    15    9   10 1
    16    9   26 ar
    17   10   11 2
    18   10   12 am
    19   12   13 1
    20   12   31 1
    21   13   25 1
    22   13   14 1
    23   13   32 1
    24   14   15 1
    25   14   33 1
    26   14   34 1
    27   15   16 1
    28   15   35 1
    29   15   36 1
    30   16   17 1
    31   16   18 1
    32   16   24 1
    33   18   19 1
    34   18   37 1
    35   18   38 1
    36   19   23 1
    37   19   20 2
    38   20   21 1
    39   20   39 1
    40   21   22 2
    41   21   40 1
    42   22   23 1
    43   22   41 1
    44   24   25 1
    45   24   42 1
    46   24   43 1
    47   25   44 1
    48   25   45 1
    49   26   46 1
    50   27   47 1
##########                 Name:            smyd3_995
##########          Protonation:                 none
##########               SMILES:   CC(C)OCC[NH+]1CCC(NC(=O)C2=CC3=C(C=C2Cl)NC(=O)C3)CC1
##########            Long Name:   NO_LONG_NAME
##########          FlexRecCode: 1
##########               Number:                 2709
##########   Ligand Source File: /proj/zinc22/users/x_andlu/OGG1/revisions/docking/targets/smyd3/db2gen/split_par
##########                 Rank:                    1
##########               Setnum:                    6
##########             Matchnum:                    8
##########                Cloud:                    1
##########        Electrostatic:           -21.169689
##########                 Gist:             0.000000
##########        Van der Waals:           -34.885185
##########  Ligand Polar Desolv:             9.808598
########## Ligand Apolar Desolv:            -2.251581
##########      Internal Energy:             0.000000
##########      Receptor Energy:             0.000000
########## Receptor Desolvation:             0.000000
########## Receptor Hydrophobic:             0.000000
##########         Total Energy:           -48.497856
##########        Ligand Charge:             1.000000
##########            Arbitrary:    +999.9990
##########        Ligand Energy:             0.000000

@<TRIPOS>MOLECULE
smyd3_995      none
   53    55     0     0     0
SMALL
USER_CHARGES

@<TRIPOS>ATOM
      1 C1         23.9598    4.3503   15.3546 C.3       1 <0>        -0.1600
      2 C2         24.3057    3.0373   16.0598 C.3       1 <0>         0.0900
      3 C3         24.9984    3.3400   17.3901 C.3       1 <0>        -0.1800
      4 O1         23.1075    2.2979   16.3042 O.3       1 <0>        -0.4000
      5 C4         22.6237    1.5823   15.1657 C.3       1 <0>         0.0300
      6 C5         21.3446    0.8314   15.5411 C.3       1 <0>        -0.0000
      7 N1         20.3256    1.7917   15.9852 N.4       1 <0>        -0.3800
      8 H1         20.7618    2.5049   16.5501 H         1 <0>         0.4300
      9 C6         19.6980    2.4140   14.8132 C.3       1 <0>        -0.0100
     10 C7         18.6930    3.4734   15.2703 C.3       1 <0>        -0.1500
     11 C8         17.6174    2.8096   16.1349 C.3       1 <0>         0.1400
     12 N2         16.6948    3.8301   16.6385 N.am      1 <0>        -0.7300
     13 C9         15.5971    4.1558   15.9278 C.2       1 <0>         0.5700
     14 O2         15.3724    3.6027   14.8684 O.2       1 <0>        -0.5000
     15 C10        14.6680    5.1834   16.4349 C.ar      1 <0>        -0.1700
     16 C11        14.4155    6.3368   15.6849 C.ar      1 <0>        -0.0200
     17 C12        13.5454    7.2842   16.1626 C.ar      1 <0>        -0.1500
     18 C13        12.9053    7.1172   17.3877 C.ar      1 <0>         0.2000
     19 C14        13.1571    5.9658   18.1361 C.ar      1 <0>        -0.1400
     20 C15        14.0283    5.0090   17.6668 C.ar      1 <0>         0.0600
     21 Cl1        14.3339    3.5815   18.6062 Cl        1 <0>        -0.0100
     22 N3         12.0798    8.2055   17.6507 N.am      1 <0>        -0.6600
     23 C16        12.1136    9.1220   16.6692 C.2       1 <0>         0.5300
     24 O3         11.4950   10.1647   16.6359 O.2       1 <0>        -0.4800
     25 C17        13.0681    8.6089   15.6122 C.3       1 <0>        -0.1100
     26 C18        18.2886    2.0993   17.3140 C.3       1 <0>        -0.1600
     27 C19        19.3100    1.0920   16.7812 C.3       1 <0>        -0.0000
     28 H2         23.4663    4.1347   14.4070 H         1 <0>         0.0700
     29 H3         23.2930    4.9374   15.9863 H         1 <0>         0.0800
     30 H4         24.8737    4.9143   15.1684 H         1 <0>         0.0600
     31 H5         24.9724    2.4504   15.4283 H         1 <0>         0.0700
     32 H6         25.2448    2.4046   17.8925 H         1 <0>         0.0600
     33 H7         25.9123    3.9041   17.2038 H         1 <0>         0.0800
     34 H8         24.3316    3.9269   18.0217 H         1 <0>         0.0700
     35 H9         23.3800    0.8698   14.8361 H         1 <0>         0.1000
     36 H10        22.4099    2.2840   14.3596 H         1 <0>         0.0700
     37 H11        21.5585    0.1298   16.3472 H         1 <0>         0.1400
     38 H12        20.9757    0.2856   14.6727 H         1 <0>         0.1400
     39 H13        19.1814    1.6514   14.2303 H         1 <0>         0.1300
     40 H14        20.4653    2.8833   14.1976 H         1 <0>         0.1300
     41 H15        18.2268    3.9330   14.3987 H         1 <0>         0.1200
     42 H16        19.2086    4.2368   15.8530 H         1 <0>         0.0900
     43 H17        17.0665    2.0831   15.5374 H         1 <0>         0.1100
     44 H18        16.8741    4.2714   17.4835 H         1 <0>         0.4000
     45 H19        14.9037    6.4811   14.7324 H         1 <0>         0.1400
     46 H20        12.6663    5.8254   19.0878 H         1 <0>         0.1500
     47 H21        11.5407    8.2928   18.4524 H         1 <0>         0.4200
     48 H22        13.9058    9.2952   15.4880 H         1 <0>         0.1300
     49 H23        12.5479    8.4641   14.6652 H         1 <0>         0.1300
     50 H24        18.7956    2.8334   17.9404 H         1 <0>         0.0900
     51 H25        17.5336    1.5776   17.9021 H         1 <0>         0.1200
     52 H26        18.8018    0.3576   16.1564 H         1 <0>         0.1300
     53 H27        19.7905    0.5859   17.6184 H         1 <0>         0.1300
@<TRIPOS>BOND
     1    1    2 1
     2    1   28 1
     3    1   29 1
     4    1   30 1
     5    2    3 1
     6    2    4 1
     7    2   31 1
     8    3   32 1
     9    3   33 1
    10    3   34 1
    11    4    5 1
    12    5    6 1
    13    5   35 1
    14    5   36 1
    15    6    7 1
    16    6   37 1
    17    6   38 1
    18    7    8 1
    19    7   27 1
    20    7    9 1
    21    9   10 1
    22    9   39 1
    23    9   40 1
    24   10   11 1
    25   10   41 1
    26   10   42 1
    27   11   12 1
    28   11   26 1
    29   11   43 1
    30   12   13 am
    31   12   44 1
    32   13   14 2
    33   13   15 1
    34   15   20 ar
    35   15   16 ar
    36   16   17 ar
    37   16   45 1
    38   17   25 1
    39   17   18 ar
    40   18   19 ar
    41   18   22 1
    42   19   20 ar
    43   19   46 1
    44   20   21 1
    45   22   23 am
    46   22   47 1
    47   23   24 2
    48   23   25 1
    49   25   48 1
    50   25   49 1
    51   26   27 1
    52   26   50 1
    53   26   51 1
    54   27   52 1
    55   27   53 1
##########                 Name:            smyd3_996
##########          Protonation:                 none
##########               SMILES:   CS(=O)(=O)CC[NH+]1CCC(NC(=O)C2=CC3=C(C=C2Cl)NC(=O)C3)CC1
##########            Long Name:   NO_LONG_NAME
##########          FlexRecCode: 1
##########               Number:                 2712
##########   Ligand Source File: /proj/zinc22/users/x_andlu/OGG1/revisions/docking/targets/smyd3/db2gen/split_par
##########                 Rank:                    1
##########               Setnum:                   73
##########             Matchnum:                   12
##########                Cloud:                    1
##########        Electrostatic:           -25.412117
##########                 Gist:             0.000000
##########        Van der Waals:           -35.250603
##########  Ligand Polar Desolv:            11.638968
########## Ligand Apolar Desolv:            -1.232788
##########      Internal Energy:             0.000000
##########      Receptor Energy:             0.000000
########## Receptor Desolvation:             0.000000
########## Receptor Hydrophobic:             0.000000
##########         Total Energy:           -50.256538
##########        Ligand Charge:             1.000000
##########            Arbitrary:    +999.9990
##########        Ligand Energy:             0.000000

@<TRIPOS>MOLECULE
smyd3_996      none
   49    51     0     0     0
SMALL
USER_CHARGES

@<TRIPOS>ATOM
      1 C1         21.9206   -2.9346   14.1789 C.3       1 <0>        -0.6500
      2 S1         22.4761   -2.4800   15.8449 S.o2      1 <0>         2.4300
      3 O1         23.6748   -1.7252   15.7323 O.2       1 <0>        -0.9200
      4 O2         22.4632   -3.6441   16.6598 O.2       1 <0>        -0.9200
      5 C2         21.1468   -1.3749   16.3948 C.3       1 <0>        -0.6800
      6 C3         21.3580    0.0158   15.7929 C.3       1 <0>         0.0100
      7 N1         20.2815    0.9107   16.2382 N.4       1 <0>        -0.3800
      8 H1         20.0753    0.7282   17.2089 H         1 <0>         0.4300
      9 C4         20.7119    2.3056   16.0847 C.3       1 <0>        -0.0000
     10 C5         19.6263    3.2404   16.6224 C.3       1 <0>        -0.1600
     11 C6         18.3311    3.0148   15.8371 C.3       1 <0>         0.1400
     12 N2         17.2668    3.8519   16.3964 N.am      1 <0>        -0.7300
     13 C7         16.2757    4.3019   15.6018 C.2       1 <0>         0.5700
     14 O3         16.2648    4.0132   14.4206 O.2       1 <0>        -0.5000
     15 C8         15.2040    5.1449   16.1651 C.ar      1 <0>        -0.1700
     16 C9         14.9899    6.4360   15.6713 C.ar      1 <0>        -0.0200
     17 C10        13.9870    7.2102   16.1980 C.ar      1 <0>        -0.1500
     18 C11        13.1735    6.7311   17.2215 C.ar      1 <0>         0.2000
     19 C12        13.3871    5.4424   17.7141 C.ar      1 <0>        -0.1400
     20 C13        14.3904    4.6570   17.1935 C.ar      1 <0>         0.0600
     21 Cl1        14.6468    3.0562   17.8143 Cl        1 <0>        -0.0100
     22 N3         12.2385    7.6953   17.5831 N.am      1 <0>        -0.6600
     23 C14        12.3607    8.8222   16.8621 C.2       1 <0>         0.5300
     24 O4         11.6800    9.8206   16.9653 O.2       1 <0>        -0.4800
     25 C15        13.5072    8.6117   15.8960 C.3       1 <0>        -0.1100
     26 C16        17.9309    1.5402   15.9411 C.3       1 <0>        -0.1600
     27 C17        19.0801    0.6683   15.4303 C.3       1 <0>        -0.0100
     28 H2         21.0005   -3.5149   14.2485 H         1 <0>         0.1300
     29 H3         21.7372   -2.0308   13.5979 H         1 <0>         0.1400
     30 H4         22.6904   -3.5313   13.6895 H         1 <0>         0.1300
     31 H5         21.1585   -1.3057   17.4825 H         1 <0>         0.1600
     32 H6         20.1859   -1.7710   16.0662 H         1 <0>         0.1600
     33 H7         21.3462   -0.0535   14.7051 H         1 <0>         0.1500
     34 H8         22.3188    0.4118   16.1213 H         1 <0>         0.1500
     35 H9         20.8839    2.5182   15.0296 H         1 <0>         0.1400
     36 H10        21.6353    2.4633   16.6419 H         1 <0>         0.1400
     37 H11        19.9470    4.2756   16.5059 H         1 <0>         0.1200
     38 H12        19.4535    3.0294   17.6778 H         1 <0>         0.1000
     39 H13        18.4891    3.2766   14.7908 H         1 <0>         0.1100
     40 H14        17.2756    4.0823   17.3386 H         1 <0>         0.4000
     41 H15        15.6120    6.8222   14.8774 H         1 <0>         0.1400
     42 H16        12.7624    5.0600   18.5078 H         1 <0>         0.1500
     43 H17        11.5732    7.5685   18.2775 H         1 <0>         0.4200
     44 H18        14.3008    9.3355   16.0812 H         1 <0>         0.1300
     45 H19        13.1570    8.6821   14.8661 H         1 <0>         0.1300
     46 H20        17.7222    1.2923   16.9817 H         1 <0>         0.0900
     47 H21        17.0408    1.3612   15.3379 H         1 <0>         0.1200
     48 H22        19.2870    0.9158   14.3892 H         1 <0>         0.1400
     49 H23        18.7987   -0.3822   15.5046 H         1 <0>         0.1400
@<TRIPOS>BOND
     1    1    2 1
     2    1   28 1
     3    1   29 1
     4    1   30 1
     5    2    3 2
     6    2    4 2
     7    2    5 1
     8    5    6 1
     9    5   31 1
    10    5   32 1
    11    6    7 1
    12    6   33 1
    13    6   34 1
    14    7    8 1
    15    7   27 1
    16    7    9 1
    17    9   10 1
    18    9   35 1
    19    9   36 1
    20   10   11 1
    21   10   37 1
    22   10   38 1
    23   11   12 1
    24   11   26 1
    25   11   39 1
    26   12   13 am
    27   12   40 1
    28   13   14 2
    29   13   15 1
    30   15   20 ar
    31   15   16 ar
    32   16   17 ar
    33   16   41 1
    34   17   25 1
    35   17   18 ar
    36   18   19 ar
    37   18   22 1
    38   19   20 ar
    39   19   42 1
    40   20   21 1
    41   22   23 am
    42   22   43 1
    43   23   24 2
    44   23   25 1
    45   25   44 1
    46   25   45 1
    47   26   27 1
    48   26   46 1
    49   26   47 1
    50   27   48 1
    51   27   49 1
##########                 Name:            smyd3_997
##########          Protonation:                 none
##########               SMILES:   O=C1CC2=CC(C(=O)NC3CCN(C4=CC(Cl)=CC=C4)CC3)=CC=C2N1
##########            Long Name:   NO_LONG_NAME
##########          FlexRecCode: 1
##########               Number:                 2716
##########   Ligand Source File: /proj/zinc22/users/x_andlu/OGG1/revisions/docking/targets/smyd3/db2gen/split_par
##########                 Rank:                    1
##########               Setnum:                   20
##########             Matchnum:                   18
##########                Cloud:                    1
##########        Electrostatic:           -17.869911
##########                 Gist:             0.000000
##########        Van der Waals:           -35.690804
##########  Ligand Polar Desolv:             5.952285
########## Ligand Apolar Desolv:            -2.336912
##########      Internal Energy:             0.000000
##########      Receptor Energy:             0.000000
########## Receptor Desolvation:             0.000000
########## Receptor Hydrophobic:             0.000000
##########         Total Energy:           -49.945343
##########        Ligand Charge:             0.000000
##########            Arbitrary:    +999.9990
##########        Ligand Energy:             0.000000

@<TRIPOS>MOLECULE
smyd3_997      none
   46    49     0     0     0
SMALL
USER_CHARGES

@<TRIPOS>ATOM
      1 O1         11.4051   10.0456   16.9593 O.2       1 <0>        -0.4900
      2 C1         12.0672    9.0313   16.8978 C.2       1 <0>         0.5300
      3 C2         12.9837    8.6233   15.7641 C.3       1 <0>        -0.1200
      4 C3         13.5449    7.2918   16.2087 C.ar      1 <0>        -0.1500
      5 C4         14.4261    6.4131   15.6314 C.ar      1 <0>        -0.0000
      6 C5         14.7659    5.2309   16.2975 C.ar      1 <0>        -0.1600
      7 C6         15.7131    4.2786   15.6855 C.2       1 <0>         0.5700
      8 O2         15.8300    4.2299   14.4762 O.2       1 <0>        -0.5300
      9 N1         16.4483    3.4630   16.4671 N.am      1 <0>        -0.7200
     10 C7         17.3883    2.5178   15.8596 C.3       1 <0>         0.1400
     11 C8         16.6762    1.1893   15.5904 C.3       1 <0>        -0.1300
     12 C9         17.6779    0.1871   15.0125 C.3       1 <0>         0.0600
     13 N2         18.7785   -0.0111   15.9643 N.pl3     1 <0>        -0.4900
     14 C10        19.6429   -1.0175   15.5275 C.ar      1 <0>         0.1300
     15 C11        20.9809   -0.7310   15.2903 C.ar      1 <0>        -0.1300
     16 C12        21.8335   -1.7295   14.8579 C.ar      1 <0>        -0.0100
     17 Cl1        23.5064   -1.3732   14.5610 Cl        1 <0>        -0.0700
     18 C13        21.3547   -3.0130   14.6622 C.ar      1 <0>        -0.1400
     19 C14        20.0226   -3.3005   14.8978 C.ar      1 <0>        -0.0800
     20 C15        19.1672   -2.3087   15.3348 C.ar      1 <0>        -0.1700
     21 C16        19.5069    1.2417   16.2020 C.3       1 <0>         0.0500
     22 C17        18.5597    2.2754   16.8155 C.3       1 <0>        -0.1300
     23 C18        14.1977    4.9553   17.5440 C.ar      1 <0>        -0.0500
     24 C19        13.3194    5.8452   18.1165 C.ar      1 <0>        -0.1500
     25 C20        12.9796    7.0259   17.4531 C.ar      1 <0>         0.1700
     26 N3         12.1248    8.0591   17.8231 N.am      1 <0>        -0.6600
     27 H1         13.7840    9.3525   15.6382 H         1 <0>         0.1300
     28 H2         12.4194    8.5102   14.8383 H         1 <0>         0.1300
     29 H3         14.8560    6.6333   14.6654 H         1 <0>         0.1400
     30 H4         16.3548    3.5018   17.4318 H         1 <0>         0.4000
     31 H5         17.7626    2.9271   14.9213 H         1 <0>         0.0900
     32 H6         16.2683    0.7995   16.5231 H         1 <0>         0.0800
     33 H7         15.8675    1.3480   14.8771 H         1 <0>         0.0800
     34 H8         18.0751    0.5712   14.0729 H         1 <0>         0.0500
     35 H9         17.1773   -0.7644   14.8330 H         1 <0>         0.0900
     36 H10        21.3546    0.2707   15.4430 H         1 <0>         0.1400
     37 H11        22.0225   -3.7917   14.3245 H         1 <0>         0.1300
     38 H12        19.6522   -4.3034   14.7445 H         1 <0>         0.1300
     39 H13        18.1281   -2.5354   15.5227 H         1 <0>         0.1300
     40 H14        19.8954    1.6209   15.2569 H         1 <0>         0.0500
     41 H15        20.3346    1.0561   16.8867 H         1 <0>         0.0900
     42 H16        19.0966    3.2101   16.9774 H         1 <0>         0.0800
     43 H17        18.1815    1.9034   17.7677 H         1 <0>         0.0800
     44 H18        14.4524    4.0422   18.0614 H         1 <0>         0.1300
     45 H19        12.8874    5.6280   19.0821 H         1 <0>         0.1400
     46 H20        11.6266    8.0756   18.6552 H         1 <0>         0.4200
@<TRIPOS>BOND
     1    1    2 2
     2    2   26 am
     3    2    3 1
     4    3    4 1
     5    3   27 1
     6    3   28 1
     7    4   25 ar
     8    4    5 ar
     9    5    6 ar
    10    5   29 1
    11    6    7 1
    12    6   23 ar
    13    7    8 2
    14    7    9 am
    15    9   10 1
    16    9   30 1
    17   10   22 1
    18   10   11 1
    19   10   31 1
    20   11   12 1
    21   11   32 1
    22   11   33 1
    23   12   13 1
    24   12   34 1
    25   12   35 1
    26   13   14 1
    27   13   21 1
    28   14   20 ar
    29   14   15 ar
    30   15   16 ar
    31   15   36 1
    32   16   17 1
    33   16   18 ar
    34   18   19 ar
    35   18   37 1
    36   19   20 ar
    37   19   38 1
    38   20   39 1
    39   21   22 1
    40   21   40 1
    41   21   41 1
    42   22   42 1
    43   22   43 1
    44   23   24 ar
    45   23   44 1
    46   24   25 ar
    47   24   45 1
    48   25   26 1
    49   26   46 1
##########                 Name:            smyd3_998
##########          Protonation:                 none
##########               SMILES:   O=C1CC2=CC(C(=O)NC3CCN(C4=CC=C(Cl)C=C4)CC3)=CC=C2N1
##########            Long Name:   NO_LONG_NAME
##########          FlexRecCode: 1
##########               Number:                 2718
##########   Ligand Source File: /proj/zinc22/users/x_andlu/OGG1/revisions/docking/targets/smyd3/db2gen/split_par
##########                 Rank:                    1
##########               Setnum:                   12
##########             Matchnum:                    4
##########                Cloud:                    1
##########        Electrostatic:           -15.508649
##########                 Gist:             0.000000
##########        Van der Waals:           -36.883224
##########  Ligand Polar Desolv:             6.123567
########## Ligand Apolar Desolv:            -2.580344
##########      Internal Energy:             0.000000
##########      Receptor Energy:             0.000000
########## Receptor Desolvation:             0.000000
########## Receptor Hydrophobic:             0.000000
##########         Total Energy:           -48.848652
##########        Ligand Charge:             0.000000
##########            Arbitrary:    +999.9990
##########        Ligand Energy:             0.000000

@<TRIPOS>MOLECULE
smyd3_998      none
   46    49     0     0     0
SMALL
USER_CHARGES

@<TRIPOS>ATOM
      1 O1         11.2692   10.0766   16.5582 O.2       1 <0>        -0.4900
      2 C1         11.9416    9.0694   16.6214 C.2       1 <0>         0.5300
      3 C2         12.8963    8.5580   15.5636 C.3       1 <0>        -0.1200
      4 C3         13.4582    7.2865   16.1578 C.ar      1 <0>        -0.1500
      5 C4         14.3608    6.3625   15.7023 C.ar      1 <0>        -0.0000
      6 C5         14.6899    5.2591   16.4968 C.ar      1 <0>        -0.1600
      7 C6         15.6638    4.2602   16.0147 C.2       1 <0>         0.5700
      8 O2         15.8147    4.0851   14.8211 O.2       1 <0>        -0.5300
      9 N1         16.3856    3.5422   16.8978 N.am      1 <0>        -0.7200
     10 C7         17.3522    2.5506   16.4194 C.3       1 <0>         0.1400
     11 C8         16.6268    1.4883   15.5888 C.3       1 <0>        -0.1300
     12 C9         17.6307    0.4220   15.1446 C.3       1 <0>         0.0600
     13 N2         18.2515   -0.1918   16.3253 N.pl3     1 <0>        -0.4900
     14 C10        19.0763   -1.2590   15.9597 C.ar      1 <0>         0.1200
     15 C11        18.5441   -2.3500   15.2844 C.ar      1 <0>        -0.1600
     16 C12        19.3626   -3.4008   14.9196 C.ar      1 <0>        -0.0800
     17 C13        20.7097   -3.3724   15.2353 C.ar      1 <0>        -0.0600
     18 Cl1        21.7343   -4.6981   14.7810 Cl        1 <0>        -0.0700
     19 C14        21.2414   -2.2894   15.9131 C.ar      1 <0>        -0.0800
     20 C15        20.4285   -1.2333   16.2758 C.ar      1 <0>        -0.1300
     21 C16        18.9938    0.8015   17.1118 C.3       1 <0>         0.0500
     22 C17        18.0304    1.8782   17.6163 C.3       1 <0>        -0.1300
     23 C18        14.0904    5.1096   17.7500 C.ar      1 <0>        -0.0500
     24 C19        13.1830    6.0404   18.1988 C.ar      1 <0>        -0.1500
     25 C20        12.8537    7.1426   17.4074 C.ar      1 <0>         0.1700
     26 N3         11.9791    8.1981   17.6432 N.am      1 <0>        -0.6600
     27 H1         12.3620    8.3437   14.6380 H         1 <0>         0.1300
     28 H2         13.6924    9.2809   15.3856 H         1 <0>         0.1300
     29 H3         14.8183    6.4871   14.7319 H         1 <0>         0.1400
     30 H4         16.2652    3.6819   17.8500 H         1 <0>         0.4000
     31 H5         18.1048    3.0431   15.8037 H         1 <0>         0.0900
     32 H6         15.8475    1.0237   16.1929 H         1 <0>         0.0800
     33 H7         16.1785    1.9553   14.7120 H         1 <0>         0.0800
     34 H8         18.4016    0.8847   14.5281 H         1 <0>         0.0500
     35 H9         17.1145   -0.3441   14.5660 H         1 <0>         0.0900
     36 H10        17.4921   -2.3747   15.0416 H         1 <0>         0.1400
     37 H11        18.9502   -4.2478   14.3912 H         1 <0>         0.1300
     38 H12        22.2929   -2.2700   16.1588 H         1 <0>         0.1400
     39 H13        20.8440   -0.3884   16.8049 H         1 <0>         0.1300
     40 H14        19.7584    1.2625   16.4863 H         1 <0>         0.0500
     41 H15        19.4678    0.3110   17.9621 H         1 <0>         0.0900
     42 H16        18.5842    2.6237   18.1868 H         1 <0>         0.0800
     43 H17        17.2736    1.4206   18.2535 H         1 <0>         0.0800
     44 H18        14.3401    4.2600   18.3681 H         1 <0>         0.1300
     45 H19        12.7232    5.9185   19.1684 H         1 <0>         0.1400
     46 H20        11.4556    8.2944   18.4541 H         1 <0>         0.4200
@<TRIPOS>BOND
     1    1    2 2
     2    2   26 am
     3    2    3 1
     4    3    4 1
     5    3   27 1
     6    3   28 1
     7    4   25 ar
     8    4    5 ar
     9    5    6 ar
    10    5   29 1
    11    6    7 1
    12    6   23 ar
    13    7    8 2
    14    7    9 am
    15    9   10 1
    16    9   30 1
    17   10   22 1
    18   10   11 1
    19   10   31 1
    20   11   12 1
    21   11   32 1
    22   11   33 1
    23   12   13 1
    24   12   34 1
    25   12   35 1
    26   13   14 1
    27   13   21 1
    28   14   20 ar
    29   14   15 ar
    30   15   16 ar
    31   15   36 1
    32   16   17 ar
    33   16   37 1
    34   17   18 1
    35   17   19 ar
    36   19   20 ar
    37   19   38 1
    38   20   39 1
    39   21   22 1
    40   21   40 1
    41   21   41 1
    42   22   42 1
    43   22   43 1
    44   23   24 ar
    45   23   44 1
    46   24   25 ar
    47   24   45 1
    48   25   26 1
    49   26   46 1
##########                 Name:            smyd3_999
##########          Protonation:                 none
##########               SMILES:   O=C1CC2=C(C=CC(C(=O)NC3CCN(C4=CC=NC(Cl)=N4)CC3)=C2)N1
##########            Long Name:   NO_LONG_NAME
##########          FlexRecCode: 1
##########               Number:                 2721
##########   Ligand Source File: /proj/zinc22/users/x_andlu/OGG1/revisions/docking/targets/smyd3/db2gen/split_par
##########                 Rank:                    1
##########               Setnum:                   40
##########             Matchnum:                   20
##########                Cloud:                    1
##########        Electrostatic:           -16.634708
##########                 Gist:             0.000000
##########        Van der Waals:           -34.830208
##########  Ligand Polar Desolv:             6.071920
########## Ligand Apolar Desolv:            -1.519907
##########      Internal Energy:             0.000000
##########      Receptor Energy:             0.000000
########## Receptor Desolvation:             0.000000
########## Receptor Hydrophobic:             0.000000
##########         Total Energy:           -46.912903
##########        Ligand Charge:             0.000000
##########            Arbitrary:    +999.9990
##########        Ligand Energy:             0.000000

@<TRIPOS>MOLECULE
smyd3_999      none
   44    47     0     0     0
SMALL
USER_CHARGES

@<TRIPOS>ATOM
      1 O1         11.2820    9.6400   16.8460 O.2       1 <0>        -0.4900
      2 C1         12.0454    8.6987   16.7993 C.2       1 <0>         0.5300
      3 C2         13.0443    8.4048   15.7002 C.3       1 <0>        -0.1200
      4 C3         13.7186    7.1290   16.1509 C.ar      1 <0>        -0.1500
      5 C4         13.1329    6.7861   17.3662 C.ar      1 <0>         0.1700
      6 C5         13.5637    5.6340   18.0282 C.ar      1 <0>        -0.1500
      7 C6         14.5501    4.8475   17.4820 C.ar      1 <0>        -0.0500
      8 C7         15.1378    5.2003   16.2640 C.ar      1 <0>        -0.1600
      9 C8         16.2005    4.3588   15.6799 C.2       1 <0>         0.5700
     10 O2         16.3675    4.3392   14.4758 O.2       1 <0>        -0.5300
     11 N1         16.9857    3.6121   16.4814 N.am      1 <0>        -0.7200
     12 C9         18.0404    2.7768   15.9017 C.3       1 <0>         0.1400
     13 C10        19.3402    3.5814   15.8141 C.3       1 <0>        -0.1300
     14 C11        20.4528    2.6858   15.2648 C.3       1 <0>         0.0700
     15 N2         20.6319    1.5273   16.1493 N.pl3     1 <0>        -0.4700
     16 C12        21.7181    0.7639   15.7537 C.ar      1 <0>         0.3700
     17 C13        21.5500   -0.5737   15.3901 C.ar      1 <0>        -0.2400
     18 C14        22.6642   -1.2948   15.0078 C.ar      1 <0>         0.1800
     19 N3         23.8467   -0.6962   14.9876 N.ar      1 <0>        -0.5300
     20 C15        23.9725    0.5710   15.3319 C.ar      1 <0>         0.3900
     21 Cl1        25.5445    1.3061   15.2872 Cl        1 <0>         0.0300
     22 N4         22.9364    1.2950   15.7085 N.ar      1 <0>        -0.5500
     23 C16        19.4114    0.7132   16.2119 C.3       1 <0>         0.0600
     24 C17        18.2676    1.5501   16.7896 C.3       1 <0>        -0.1300
     25 C18        14.7077    6.3535   15.5998 C.ar      1 <0>        -0.0000
     26 N5         12.1635    7.7213   17.7132 N.am      1 <0>        -0.6600
     27 H1         13.7711    9.2129   15.6182 H         1 <0>         0.1300
     28 H2         12.5327    8.2515   14.7501 H         1 <0>         0.1300
     29 H3         13.1169    5.3577   18.9717 H         1 <0>         0.1400
     30 H4         14.8749    3.9560   17.9980 H         1 <0>         0.1400
     31 H5         16.8524    3.6278   17.4421 H         1 <0>         0.4000
     32 H6         17.7436    2.4543   14.9038 H         1 <0>         0.0900
     33 H7         19.6159    3.9368   16.8069 H         1 <0>         0.0800
     34 H8         19.1967    4.4330   15.1489 H         1 <0>         0.0800
     35 H9         21.3831    3.2515   15.2146 H         1 <0>         0.1000
     36 H10        20.1827    2.3419   14.2664 H         1 <0>         0.0600
     37 H11        20.5734   -1.0342   15.4110 H         1 <0>         0.1600
     38 H12        22.5724   -2.3328   14.7240 H         1 <0>         0.1800
     39 H13        19.1462    0.3788   15.2090 H         1 <0>         0.0600
     40 H14        19.5852   -0.1534   16.8497 H         1 <0>         0.0900
     41 H15        18.5264    1.8734   17.7977 H         1 <0>         0.0800
     42 H16        17.3580    0.9504   16.8213 H         1 <0>         0.0900
     43 H17        15.1522    6.6326   14.6559 H         1 <0>         0.1400
     44 H18        11.6328    7.6731   18.5237 H         1 <0>         0.4200
@<TRIPOS>BOND
     1    1    2 2
     2    2   26 am
     3    2    3 1
     4    3    4 1
     5    3   27 1
     6    3   28 1
     7    4   25 ar
     8    4    5 ar
     9    5    6 ar
    10    5   26 1
    11    6    7 ar
    12    6   29 1
    13    7    8 ar
    14    7   30 1
    15    8    9 1
    16    8   25 ar
    17    9   10 2
    18    9   11 am
    19   11   12 1
    20   11   31 1
    21   12   24 1
    22   12   13 1
    23   12   32 1
    24   13   14 1
    25   13   33 1
    26   13   34 1
    27   14   15 1
    28   14   35 1
    29   14   36 1
    30   15   16 1
    31   15   23 1
    32   16   22 ar
    33   16   17 ar
    34   17   18 ar
    35   17   37 1
    36   18   19 ar
    37   18   38 1
    38   19   20 ar
    39   20   21 1
    40   20   22 ar
    41   23   24 1
    42   23   39 1
    43   23   40 1
    44   24   41 1
    45   24   42 1
    46   25   43 1
    47   26   44 1
##########                 Name:           smyd3_1004
##########          Protonation:                 none
##########               SMILES:   O=C1CC2=C(C=CC(C(=O)NC3CCN(C(=O)CC(F)(F)F)CC3)=C2)N1
##########            Long Name:   NO_LONG_NAME
##########          FlexRecCode: 1
##########               Number:                 2737
##########   Ligand Source File: /proj/zinc22/users/x_andlu/OGG1/revisions/docking/targets/smyd3/db2gen/split_par
##########                 Rank:                    1
##########               Setnum:                   16
##########             Matchnum:                   20
##########                Cloud:                    1
##########        Electrostatic:           -20.173687
##########                 Gist:             0.000000
##########        Van der Waals:           -32.069309
##########  Ligand Polar Desolv:             7.252748
########## Ligand Apolar Desolv:            -1.880323
##########      Internal Energy:             0.000000
##########      Receptor Energy:             0.000000
########## Receptor Desolvation:             0.000000
########## Receptor Hydrophobic:             0.000000
##########         Total Energy:           -46.870571
##########        Ligand Charge:             0.000000
##########            Arbitrary:    +999.9990
##########        Ligand Energy:             0.000000

@<TRIPOS>MOLECULE
smyd3_1004      none
   44    46     0     0     0
SMALL
USER_CHARGES

@<TRIPOS>ATOM
      1 O1         11.3716   10.0051   16.9747 O.2       1 <0>        -0.4900
      2 C1         12.0440    8.9978   16.9104 C.2       1 <0>         0.5300
      3 C2         12.9669    8.6036   15.7767 C.3       1 <0>        -0.1200
      4 C3         13.5430    7.2764   16.2148 C.ar      1 <0>        -0.1500
      5 C4         12.9746    6.9987   17.4583 C.ar      1 <0>         0.1700
      6 C5         13.3244    5.8179   18.1172 C.ar      1 <0>        -0.1500
      7 C6         14.2157    4.9416   17.5452 C.ar      1 <0>        -0.0500
      8 C7         14.7795    5.2255   16.2981 C.ar      1 <0>        -0.1600
      9 C8         15.7367    4.2848   15.6837 C.2       1 <0>         0.5700
     10 O2         15.8531    4.2395   14.4743 O.2       1 <0>        -0.5300
     11 N1         16.4817    3.4762   16.4633 N.am      1 <0>        -0.7200
     12 C9         17.4318    2.5426   15.8535 C.3       1 <0>         0.1500
     13 C10        16.7319    1.2096   15.5791 C.3       1 <0>        -0.1500
     14 C11        17.7186    0.2477   14.9097 C.3       1 <0>         0.1100
     15 N2         18.9170    0.1375   15.7525 N.am      1 <0>        -0.6100
     16 C12        19.3665   -1.0684   16.1527 C.2       1 <0>         0.5200
     17 O3         18.5865   -1.9825   16.3163 O.2       1 <0>        -0.5200
     18 C13        20.8383   -1.2808   16.3969 C.3       1 <0>        -0.2000
     19 C14        21.1990   -2.7382   16.1022 C.3       1 <0>         0.4700
     20 F1         20.9006   -3.0317   14.7672 F         1 <0>        -0.1700
     21 F2         22.5655   -2.9354   16.3288 F         1 <0>        -0.1800
     22 F3         20.4609   -3.5801   16.9410 F         1 <0>        -0.1700
     23 C15        19.6155    1.3669   16.1514 C.3       1 <0>         0.1200
     24 C16        18.6075    2.3164   16.8066 C.3       1 <0>        -0.1400
     25 C17        14.4304    6.4074   15.6368 C.ar      1 <0>        -0.0000
     26 N3         12.1091    8.0219   17.8312 N.am      1 <0>        -0.6600
     27 H1         12.4059    8.4893   14.8492 H         1 <0>         0.1300
     28 H2         13.7591    9.3424   15.6544 H         1 <0>         0.1300
     29 H3         12.8919    5.5920   19.0808 H         1 <0>         0.1400
     30 H4         14.4811    4.0306   18.0611 H         1 <0>         0.1300
     31 H5         16.3888    3.5125   17.4281 H         1 <0>         0.4000
     32 H6         17.7995    2.9594   14.9158 H         1 <0>         0.1000
     33 H7         16.3859    0.7801   16.5193 H         1 <0>         0.0700
     34 H8         15.8805    1.3748   14.9189 H         1 <0>         0.0900
     35 H9         17.9961    0.6330   13.9285 H         1 <0>         0.0800
     36 H10        17.2576   -0.7339   14.7998 H         1 <0>         0.0900
     37 H11        21.4134   -0.6249   15.7434 H         1 <0>         0.1400
     38 H12        21.0708   -1.0521   17.4369 H         1 <0>         0.1400
     39 H13        20.0478    1.8435   15.2716 H         1 <0>         0.0800
     40 H14        20.4061    1.1263   16.8621 H         1 <0>         0.1000
     41 H15        19.0913    3.2696   17.0203 H         1 <0>         0.0900
     42 H16        18.2437    1.8770   17.7353 H         1 <0>         0.0800
     43 H17        14.8604    6.6359   14.6729 H         1 <0>         0.1400
     44 H18        11.6094    8.0299   18.6624 H         1 <0>         0.4200
@<TRIPOS>BOND
     1    1    2 2
     2    2   26 am
     3    2    3 1
     4    3    4 1
     5    3   27 1
     6    3   28 1
     7    4   25 ar
     8    4    5 ar
     9    5    6 ar
    10    5   26 1
    11    6    7 ar
    12    6   29 1
    13    7    8 ar
    14    7   30 1
    15    8    9 1
    16    8   25 ar
    17    9   10 2
    18    9   11 am
    19   11   12 1
    20   11   31 1
    21   12   24 1
    22   12   13 1
    23   12   32 1
    24   13   14 1
    25   13   33 1
    26   13   34 1
    27   14   15 1
    28   14   35 1
    29   14   36 1
    30   15   16 am
    31   15   23 1
    32   16   17 2
    33   16   18 1
    34   18   19 1
    35   18   37 1
    36   18   38 1
    37   19   20 1
    38   19   21 1
    39   19   22 1
    40   23   24 1
    41   23   39 1
    42   23   40 1
    43   24   41 1
    44   24   42 1
    45   25   43 1
    46   26   44 1
##########                 Name:           smyd3_1005
##########          Protonation:                 none
##########               SMILES:   CN(C(=O)C1=CC=C2NC(=O)CC2=C1)C1CC[NH+](CCC(F)(F)F)CC1
##########            Long Name:   NO_LONG_NAME
##########          FlexRecCode: 1
##########               Number:                 2740
##########   Ligand Source File: /proj/zinc22/users/x_andlu/OGG1/revisions/docking/targets/smyd3/db2gen/split_par
##########                 Rank:                    1
##########               Setnum:                   18
##########             Matchnum:                    3
##########                Cloud:                    1
##########        Electrostatic:           -20.315279
##########                 Gist:             0.000000
##########        Van der Waals:           -34.560474
##########  Ligand Polar Desolv:            10.909642
########## Ligand Apolar Desolv:            -2.844689
##########      Internal Energy:             0.000000
##########      Receptor Energy:             0.000000
########## Receptor Desolvation:             0.000000
########## Receptor Hydrophobic:             0.000000
##########         Total Energy:           -46.810802
##########        Ligand Charge:             1.000000
##########            Arbitrary:    +999.9990
##########        Ligand Energy:             0.000000

@<TRIPOS>MOLECULE
smyd3_1005      none
   49    51     0     0     0
SMALL
USER_CHARGES

@<TRIPOS>ATOM
      1 C1         15.2806    3.0880   15.5018 C.3       1 <0>         0.0600
      2 N1         16.5322    3.6466   16.0191 N.am      1 <0>        -0.6100
      3 C2         16.6238    4.9653   16.2820 C.2       1 <0>         0.5800
      4 O1         17.6938    5.5332   16.1773 O.2       1 <0>        -0.5200
      5 C3         15.4253    5.7201   16.6969 C.ar      1 <0>        -0.1700
      6 C4         14.7348    5.3616   17.8576 C.ar      1 <0>        -0.0200
      7 C5         13.6175    6.0645   18.2434 C.ar      1 <0>        -0.1400
      8 C6         13.1640    7.1421   17.4801 C.ar      1 <0>         0.1800
      9 N2         12.0771    7.9899   17.6658 N.am      1 <0>        -0.6600
     10 C7         11.9787    8.9152   16.6969 C.2       1 <0>         0.5300
     11 O2         11.1305    9.7775   16.6080 O.2       1 <0>        -0.4900
     12 C8         13.1251    8.6793   15.7366 C.3       1 <0>        -0.1100
     13 C9         13.8601    7.4958   16.3234 C.ar      1 <0>        -0.1500
     14 C10        14.9720    6.7993   15.9307 C.ar      1 <0>        -0.0400
     15 C11        17.6844    2.7718   16.2507 C.3       1 <0>         0.1300
     16 C12        18.0891    2.0992   14.9357 C.3       1 <0>        -0.1600
     17 C13        19.2401    1.1258   15.2003 C.3       1 <0>        -0.0100
     18 N3         18.8124    0.1049   16.1643 N.4       1 <0>        -0.3800
     19 H1         17.9946   -0.3686   15.8106 H         1 <0>         0.4300
     20 C14        19.8948   -0.8697   16.3554 C.3       1 <0>        -0.0100
     21 C15        19.8929   -1.8679   15.1958 C.3       1 <0>        -0.2000
     22 C16        21.0202   -2.8830   15.3949 C.3       1 <0>         0.4700
     23 F1         20.8243   -3.5670   16.5994 F         1 <0>        -0.1700
     24 F2         21.0184   -3.7956   14.3346 F         1 <0>        -0.1700
     25 F3         22.2485   -2.2144   15.4328 F         1 <0>        -0.1700
     26 C17        18.4923    0.7368   17.4499 C.3       1 <0>        -0.0000
     27 C18        17.3114    1.6936   17.2723 C.3       1 <0>        -0.1600
     28 H2         15.3965    2.0147   15.3515 H         1 <0>         0.0700
     29 H3         14.4785    3.2703   16.2169 H         1 <0>         0.0700
     30 H4         15.0357    3.5634   14.5520 H         1 <0>         0.0900
     31 H5         15.0795    4.5295   18.4536 H         1 <0>         0.1400
     32 H6         13.0885    5.7818   19.1415 H         1 <0>         0.1400
     33 H7         11.4600    7.9209   18.4109 H         1 <0>         0.4200
     34 H8         12.7476    8.4402   14.7423 H         1 <0>         0.1300
     35 H9         13.7764    9.5524   15.6972 H         1 <0>         0.1300
     36 H10        15.4984    7.0841   15.0317 H         1 <0>         0.1400
     37 H11        18.5190    3.3610   16.6307 H         1 <0>         0.1200
     38 H12        17.2380    1.5530   14.5292 H         1 <0>         0.0900
     39 H13        18.4096    2.8584   14.2222 H         1 <0>         0.1200
     40 H14        20.0911    1.6734   15.6052 H         1 <0>         0.1400
     41 H15        19.5294    0.6445   14.2662 H         1 <0>         0.1400
     42 H16        20.8518   -0.3489   16.3850 H         1 <0>         0.1500
     43 H17        19.7420   -1.4028   17.2939 H         1 <0>         0.1500
     44 H18        18.9359   -2.3887   15.1662 H         1 <0>         0.1400
     45 H19        20.0456   -1.3348   14.2574 H         1 <0>         0.1400
     46 H20        19.3593    1.2927   17.8069 H         1 <0>         0.1400
     47 H21        18.2301   -0.0322   18.1764 H         1 <0>         0.1400
     48 H22        17.0766    2.1630   18.2276 H         1 <0>         0.1200
     49 H23        16.4433    1.1391   16.9160 H         1 <0>         0.0900
@<TRIPOS>BOND
     1    1    2 1
     2    1   28 1
     3    1   29 1
     4    1   30 1
     5    2    3 am
     6    2   15 1
     7    3    4 2
     8    3    5 1
     9    5   14 ar
    10    5    6 ar
    11    6    7 ar
    12    6   31 1
    13    7    8 ar
    14    7   32 1
    15    8   13 ar
    16    8    9 1
    17    9   10 am
    18    9   33 1
    19   10   11 2
    20   10   12 1
    21   12   13 1
    22   12   34 1
    23   12   35 1
    24   13   14 ar
    25   14   36 1
    26   15   27 1
    27   15   16 1
    28   15   37 1
    29   16   17 1
    30   16   38 1
    31   16   39 1
    32   17   18 1
    33   17   40 1
    34   17   41 1
    35   18   19 1
    36   18   20 1
    37   18   26 1
    38   20   21 1
    39   20   42 1
    40   20   43 1
    41   21   22 1
    42   21   44 1
    43   21   45 1
    44   22   23 1
    45   22   24 1
    46   22   25 1
    47   26   27 1
    48   26   46 1
    49   26   47 1
    50   27   48 1
    51   27   49 1
##########                 Name:           smyd3_1016
##########          Protonation:                 none
##########               SMILES:   O=C1CC2=CC(C(=O)NC3CCN(C4=CC=CC=C4F)CC3)=CC=C2N1
##########            Long Name:   NO_LONG_NAME
##########          FlexRecCode: 1
##########               Number:                 2762
##########   Ligand Source File: /proj/zinc22/users/x_andlu/OGG1/revisions/docking/targets/smyd3/db2gen/split_par
##########                 Rank:                    1
##########               Setnum:                    8
##########             Matchnum:                    4
##########                Cloud:                    1
##########        Electrostatic:           -20.003670
##########                 Gist:             0.000000
##########        Van der Waals:           -33.790585
##########  Ligand Polar Desolv:             6.702816
########## Ligand Apolar Desolv:            -2.315814
##########      Internal Energy:             0.000000
##########      Receptor Energy:             0.000000
########## Receptor Desolvation:             0.000000
########## Receptor Hydrophobic:             0.000000
##########         Total Energy:           -49.407253
##########        Ligand Charge:             0.000000
##########            Arbitrary:    +999.9990
##########        Ligand Energy:             0.000000

@<TRIPOS>MOLECULE
smyd3_1016      none
   46    49     0     0     0
SMALL
USER_CHARGES

@<TRIPOS>ATOM
      1 O1         11.5218   10.0487   16.8353 O.2       1 <0>        -0.4900
      2 C1         12.1494    9.0118   16.7929 C.2       1 <0>         0.5300
      3 C2         13.0903    8.5750   15.6902 C.3       1 <0>        -0.1200
      4 C3         13.5912    7.2237   16.1468 C.ar      1 <0>        -0.1500
      5 C4         14.4569    6.3149   15.5986 C.ar      1 <0>        -0.0000
      6 C5         14.7309    5.1194   16.2714 C.ar      1 <0>        -0.1600
      7 C6         15.6647    4.1359   15.6890 C.2       1 <0>         0.5600
      8 O2         15.8184    4.0830   14.4841 O.2       1 <0>        -0.5300
      9 N1         16.3470    3.2965   16.4928 N.am      1 <0>        -0.7200
     10 C7         17.2738    2.3201   15.9148 C.3       1 <0>         0.1400
     11 C8         16.5267    1.0159   15.6228 C.3       1 <0>        -0.1300
     12 C9         17.5122   -0.0194   15.0762 C.3       1 <0>         0.0400
     13 N2         18.5751   -0.2536   16.0619 N.pl3     1 <0>        -0.4900
     14 C10        19.4200   -1.2896   15.6517 C.ar      1 <0>         0.0800
     15 C11        20.1202   -1.1850   14.4581 C.ar      1 <0>        -0.1100
     16 C12        20.9547   -2.2104   14.0555 C.ar      1 <0>        -0.1000
     17 C13        21.0930   -3.3401   14.8399 C.ar      1 <0>        -0.1200
     18 C14        20.3974   -3.4494   16.0304 C.ar      1 <0>        -0.1300
     19 C15        19.5648   -2.4254   16.4420 C.ar      1 <0>         0.0500
     20 F1         18.8895   -2.5295   17.6075 F         1 <0>        -0.1300
     21 C16        19.3369    0.9746   16.3231 C.3       1 <0>         0.0600
     22 C17        18.4058    2.0395   16.9070 C.3       1 <0>        -0.1300
     23 C18        14.1144    4.8632   17.4989 C.ar      1 <0>        -0.0500
     24 C19        13.2444    5.7797   18.0413 C.ar      1 <0>        -0.1500
     25 C20        12.9701    6.9737   17.3713 C.ar      1 <0>         0.1700
     26 N3         12.1401    8.0354   17.7154 N.am      1 <0>        -0.6600
     27 H1         12.5553    8.4847   14.7448 H         1 <0>         0.1300
     28 H2         13.9185    9.2771   15.5940 H         1 <0>         0.1300
     29 H3         14.9279    6.5223   14.6491 H         1 <0>         0.1400
     30 H4         16.2243    3.3386   17.4541 H         1 <0>         0.4000
     31 H5         17.6907    2.7173   14.9893 H         1 <0>         0.0900
     32 H6         16.0769    0.6405   16.5420 H         1 <0>         0.0700
     33 H7         15.7465    1.2010   14.8844 H         1 <0>         0.0800
     34 H8         17.9512    0.3507   14.1497 H         1 <0>         0.0600
     35 H9         16.9862   -0.9538   14.8807 H         1 <0>         0.1000
     36 H10        20.0133   -0.3026   13.8445 H         1 <0>         0.1400
     37 H11        21.4993   -2.1290   13.1265 H         1 <0>         0.1300
     38 H12        21.7458   -4.1398   14.5220 H         1 <0>         0.1300
     39 H13        20.5080   -4.3332   16.6410 H         1 <0>         0.1400
     40 H14        19.7674    1.3400   15.3909 H         1 <0>         0.0500
     41 H15        20.1361    0.7620   17.0333 H         1 <0>         0.0900
     42 H16        18.9683    2.9559   17.0861 H         1 <0>         0.0800
     43 H17        17.9857    1.6801   17.8464 H         1 <0>         0.0800
     44 H18        14.3216    3.9422   18.0233 H         1 <0>         0.1300
     45 H19        12.7712    5.5751   18.9902 H         1 <0>         0.1400
     46 H20        11.6141    8.0673   18.5298 H         1 <0>         0.4200
@<TRIPOS>BOND
     1    1    2 2
     2    2   26 am
     3    2    3 1
     4    3    4 1
     5    3   27 1
     6    3   28 1
     7    4   25 ar
     8    4    5 ar
     9    5    6 ar
    10    5   29 1
    11    6    7 1
    12    6   23 ar
    13    7    8 2
    14    7    9 am
    15    9   10 1
    16    9   30 1
    17   10   22 1
    18   10   11 1
    19   10   31 1
    20   11   12 1
    21   11   32 1
    22   11   33 1
    23   12   13 1
    24   12   34 1
    25   12   35 1
    26   13   14 1
    27   13   21 1
    28   14   19 ar
    29   14   15 ar
    30   15   16 ar
    31   15   36 1
    32   16   17 ar
    33   16   37 1
    34   17   18 ar
    35   17   38 1
    36   18   19 ar
    37   18   39 1
    38   19   20 1
    39   21   22 1
    40   21   40 1
    41   21   41 1
    42   22   42 1
    43   22   43 1
    44   23   24 ar
    45   23   44 1
    46   24   25 ar
    47   24   45 1
    48   25   26 1
    49   26   46 1
##########                 Name:           smyd3_1017
##########          Protonation:                 none
##########               SMILES:   O=C1CC2=CC(C(=O)NC3CCN(C4=CC(F)=CC=C4)CC3)=CC=C2N1
##########            Long Name:   NO_LONG_NAME
##########          FlexRecCode: 1
##########               Number:                 2766
##########   Ligand Source File: /proj/zinc22/users/x_andlu/OGG1/revisions/docking/targets/smyd3/db2gen/split_par
##########                 Rank:                    1
##########               Setnum:                   20
##########             Matchnum:                   13
##########                Cloud:                    1
##########        Electrostatic:           -18.037262
##########                 Gist:             0.000000
##########        Van der Waals:           -34.686825
##########  Ligand Polar Desolv:             6.128511
########## Ligand Apolar Desolv:            -2.216666
##########      Internal Energy:             0.000000
##########      Receptor Energy:             0.000000
########## Receptor Desolvation:             0.000000
########## Receptor Hydrophobic:             0.000000
##########         Total Energy:           -48.812241
##########        Ligand Charge:             0.000000
##########            Arbitrary:    +999.9990
##########        Ligand Energy:             0.000000

@<TRIPOS>MOLECULE
smyd3_1017      none
   46    49     0     0     0
SMALL
USER_CHARGES

@<TRIPOS>ATOM
      1 O1         11.3798   10.0159   16.9971 O.2       1 <0>        -0.4900
      2 C1         12.0489    9.0068   16.9282 C.2       1 <0>         0.5300
      3 C2         12.9550    8.6052   15.7839 C.3       1 <0>        -0.1200
      4 C3         13.5318    7.2784   16.2225 C.ar      1 <0>        -0.1500
      5 C4         14.4129    6.4063   15.6351 C.ar      1 <0>        -0.0000
      6 C5         14.7698    5.2270   16.2977 C.ar      1 <0>        -0.1600
      7 C6         15.7170    4.2818   15.6749 C.2       1 <0>         0.5700
      8 O2         15.8200    4.2333   14.4644 O.2       1 <0>        -0.5300
      9 N1         16.4677    3.4724   16.4482 N.am      1 <0>        -0.7200
     10 C7         17.4078    2.5342   15.8300 C.3       1 <0>         0.1400
     11 C8         16.7028    1.2000   15.5699 C.3       1 <0>        -0.1300
     12 C9         17.7055    0.2053   14.9807 C.3       1 <0>         0.0600
     13 N2         18.8187    0.0162   15.9194 N.pl3     1 <0>        -0.4900
     14 C10        19.6857   -0.9836   15.4729 C.ar      1 <0>         0.1400
     15 C11        21.0183   -0.6866   15.2198 C.ar      1 <0>        -0.1800
     16 C12        21.8743   -1.6796   14.7781 C.ar      1 <0>         0.1300
     17 F1         23.1714   -1.3926   14.5318 F         1 <0>        -0.1400
     18 C13        21.4023   -2.9677   14.5886 C.ar      1 <0>        -0.1800
     19 C14        20.0754   -3.2646   14.8401 C.ar      1 <0>        -0.0600
     20 C15        19.2178   -2.2785   15.2863 C.ar      1 <0>        -0.1800
     21 C16        19.5401    1.2748   16.1479 C.3       1 <0>         0.0500
     22 C17        18.5923    2.3014   16.7721 C.3       1 <0>        -0.1300
     23 C18        14.2185    4.9477   17.5510 C.ar      1 <0>        -0.0500
     24 C19        13.3402    5.8311   18.1335 C.ar      1 <0>        -0.1500
     25 C20        12.9833    7.0088   17.4736 C.ar      1 <0>         0.1700
     26 N3         12.1251    8.0355   17.8532 N.am      1 <0>        -0.6600
     27 H1         13.7482    9.3405   15.6482 H         1 <0>         0.1300
     28 H2         12.3807    8.4873   14.8649 H         1 <0>         0.1300
     29 H3         14.8296    6.6292   14.6640 H         1 <0>         0.1400
     30 H4         16.3853    3.5109   17.4140 H         1 <0>         0.4000
     31 H5         17.7678    2.9458   14.8871 H         1 <0>         0.0900
     32 H6         16.3091    0.8076   16.5075 H         1 <0>         0.0800
     33 H7         15.8845    1.3520   14.8662 H         1 <0>         0.0800
     34 H8         18.0885    0.5919   14.0363 H         1 <0>         0.0500
     35 H9         17.2102   -0.7502   14.8076 H         1 <0>         0.0900
     36 H10        21.3859    0.3181   15.3675 H         1 <0>         0.1400
     37 H11        22.0717   -3.7417   14.2433 H         1 <0>         0.1300
     38 H12        19.7105   -4.2701   14.6918 H         1 <0>         0.1300
     39 H13        18.1827   -2.5129   15.4864 H         1 <0>         0.1300
     40 H14        19.9145    1.6564   15.1981 H         1 <0>         0.0500
     41 H15        20.3773    1.0960   16.8228 H         1 <0>         0.0900
     42 H16        19.1238    3.2403   16.9272 H         1 <0>         0.0800
     43 H17        18.2282    1.9270   17.7289 H         1 <0>         0.0800
     44 H18        14.4864    4.0370   18.0658 H         1 <0>         0.1300
     45 H19        12.9214    5.6111   19.1042 H         1 <0>         0.1400
     46 H20        11.6366    8.0486   18.6911 H         1 <0>         0.4200
@<TRIPOS>BOND
     1    1    2 2
     2    2   26 am
     3    2    3 1
     4    3    4 1
     5    3   27 1
     6    3   28 1
     7    4   25 ar
     8    4    5 ar
     9    5    6 ar
    10    5   29 1
    11    6    7 1
    12    6   23 ar
    13    7    8 2
    14    7    9 am
    15    9   10 1
    16    9   30 1
    17   10   22 1
    18   10   11 1
    19   10   31 1
    20   11   12 1
    21   11   32 1
    22   11   33 1
    23   12   13 1
    24   12   34 1
    25   12   35 1
    26   13   14 1
    27   13   21 1
    28   14   20 ar
    29   14   15 ar
    30   15   16 ar
    31   15   36 1
    32   16   17 1
    33   16   18 ar
    34   18   19 ar
    35   18   37 1
    36   19   20 ar
    37   19   38 1
    38   20   39 1
    39   21   22 1
    40   21   40 1
    41   21   41 1
    42   22   42 1
    43   22   43 1
    44   23   24 ar
    45   23   44 1
    46   24   25 ar
    47   24   45 1
    48   25   26 1
    49   26   46 1
##########                 Name:           smyd3_1018
##########          Protonation:                 none
##########               SMILES:   O=C1CC2=CC(C(=O)NC3CCN(C4=CC=C(F)C=C4)CC3)=CC=C2N1
##########            Long Name:   NO_LONG_NAME
##########          FlexRecCode: 1
##########               Number:                 2768
##########   Ligand Source File: /proj/zinc22/users/x_andlu/OGG1/revisions/docking/targets/smyd3/db2gen/split_par
##########                 Rank:                    1
##########               Setnum:                   12
##########             Matchnum:                    9
##########                Cloud:                    1
##########        Electrostatic:           -15.945839
##########                 Gist:             0.000000
##########        Van der Waals:           -35.178715
##########  Ligand Polar Desolv:             6.294411
########## Ligand Apolar Desolv:            -2.405368
##########      Internal Energy:             0.000000
##########      Receptor Energy:             0.000000
########## Receptor Desolvation:             0.000000
########## Receptor Hydrophobic:             0.000000
##########         Total Energy:           -47.235512
##########        Ligand Charge:             0.000000
##########            Arbitrary:    +999.9990
##########        Ligand Energy:             0.000000

@<TRIPOS>MOLECULE
smyd3_1018      none
   46    49     0     0     0
SMALL
USER_CHARGES

@<TRIPOS>ATOM
      1 O1         11.2483   10.0452   16.5657 O.2       1 <0>        -0.4900
      2 C1         11.9297    9.0437   16.6236 C.2       1 <0>         0.5300
      3 C2         12.8808    8.5407   15.5585 C.3       1 <0>        -0.1200
      4 C3         13.4579    7.2738   16.1480 C.ar      1 <0>        -0.1500
      5 C4         14.3649    6.3577   15.6854 C.ar      1 <0>        -0.0000
      6 C5         14.7093    5.2569   16.4770 C.ar      1 <0>        -0.1600
      7 C6         15.6880    4.2665   15.9873 C.2       1 <0>         0.5700
      8 O2         15.8315    4.0930   14.7926 O.2       1 <0>        -0.5300
      9 N1         16.4225    3.5544   16.8647 N.am      1 <0>        -0.7200
     10 C7         17.3939    2.5712   16.3788 C.3       1 <0>         0.1400
     11 C8         16.6714    1.5031   15.5532 C.3       1 <0>        -0.1300
     12 C9         17.6811    0.4454   15.1011 C.3       1 <0>         0.0600
     13 N2         18.3158   -0.1635   16.2770 N.pl3     1 <0>        -0.4900
     14 C10        19.1474   -1.2240   15.9046 C.ar      1 <0>         0.1000
     15 C11        18.6193   -2.3190   15.2330 C.ar      1 <0>        -0.1400
     16 C12        19.4434   -3.3634   14.8618 C.ar      1 <0>        -0.1300
     17 C13        20.7933   -3.3237   15.1676 C.ar      1 <0>         0.0700
     18 F1         21.5966   -4.3488   14.8081 F         1 <0>        -0.1400
     19 C14        21.3210   -2.2355   15.8416 C.ar      1 <0>        -0.1300
     20 C15        20.5014   -1.1867   16.2106 C.ar      1 <0>        -0.1100
     21 C16        19.0555    0.8359   17.0582 C.3       1 <0>         0.0500
     22 C17        18.0867    1.9042   17.5703 C.3       1 <0>        -0.1300
     23 C18        14.1204    5.1020   17.7346 C.ar      1 <0>        -0.0500
     24 C19        13.2086    6.0249   18.1905 C.ar      1 <0>        -0.1500
     25 C20        12.8640    7.1245   17.4020 C.ar      1 <0>         0.1700
     26 N3         11.9823    8.1724   17.6447 N.am      1 <0>        -0.6600
     27 H1         12.3415    8.3222   14.6368 H         1 <0>         0.1300
     28 H2         13.6694    9.2705   15.3748 H         1 <0>         0.1300
     29 H3         14.8141    6.4865   14.7117 H         1 <0>         0.1400
     30 H4         16.3080    3.6928   17.8179 H         1 <0>         0.4000
     31 H5         18.1377    3.0703   15.7576 H         1 <0>         0.0900
     32 H6         15.9006    1.0316   16.1630 H         1 <0>         0.0800
     33 H7         16.2127    1.9665   14.6799 H         1 <0>         0.0800
     34 H8         18.4433    0.9149   14.4791 H         1 <0>         0.0500
     35 H9         17.1671   -0.3248   14.5261 H         1 <0>         0.0900
     36 H10        17.5657   -2.3521   14.9979 H         1 <0>         0.1400
     37 H11        19.0338   -4.2134   14.3365 H         1 <0>         0.1400
     38 H12        22.3740   -2.2069   16.0795 H         1 <0>         0.1400
     39 H13        20.9133   -0.3385   16.7370 H         1 <0>         0.1400
     40 H14        19.8114    1.3036   16.4273 H         1 <0>         0.0500
     41 H15        19.5399    0.3492   17.9048 H         1 <0>         0.0900
     42 H16        18.6384    2.6543   18.1370 H         1 <0>         0.0800
     43 H17        17.3386    1.4400   18.2129 H         1 <0>         0.0800
     44 H18        14.3820    4.2543   18.3505 H         1 <0>         0.1300
     45 H19        12.7571    5.8987   19.1634 H         1 <0>         0.1400
     46 H20        11.4640    8.2640   18.4595 H         1 <0>         0.4200
@<TRIPOS>BOND
     1    1    2 2
     2    2   26 am
     3    2    3 1
     4    3    4 1
     5    3   27 1
     6    3   28 1
     7    4   25 ar
     8    4    5 ar
     9    5    6 ar
    10    5   29 1
    11    6    7 1
    12    6   23 ar
    13    7    8 2
    14    7    9 am
    15    9   10 1
    16    9   30 1
    17   10   22 1
    18   10   11 1
    19   10   31 1
    20   11   12 1
    21   11   32 1
    22   11   33 1
    23   12   13 1
    24   12   34 1
    25   12   35 1
    26   13   14 1
    27   13   21 1
    28   14   20 ar
    29   14   15 ar
    30   15   16 ar
    31   15   36 1
    32   16   17 ar
    33   16   37 1
    34   17   18 1
    35   17   19 ar
    36   19   20 ar
    37   19   38 1
    38   20   39 1
    39   21   22 1
    40   21   40 1
    41   21   41 1
    42   22   42 1
    43   22   43 1
    44   23   24 ar
    45   23   44 1
    46   24   25 ar
    47   24   45 1
    48   25   26 1
    49   26   46 1
##########                 Name:           smyd3_1028
##########          Protonation:                 none
##########               SMILES:   CN(C(=O)C1=CC=C2NC(=O)CC2=C1)C1CCN(C2=CC=CC=C2)CC1
##########            Long Name:   NO_LONG_NAME
##########          FlexRecCode: 1
##########               Number:                 2794
##########   Ligand Source File: /proj/zinc22/users/x_andlu/OGG1/revisions/docking/targets/smyd3/db2gen/split_par
##########                 Rank:                    1
##########               Setnum:                    9
##########             Matchnum:                    2
##########                Cloud:                    1
##########        Electrostatic:           -11.991375
##########                 Gist:             0.000000
##########        Van der Waals:           -36.944267
##########  Ligand Polar Desolv:             6.196983
########## Ligand Apolar Desolv:            -2.641718
##########      Internal Energy:             0.000000
##########      Receptor Energy:             0.000000
########## Receptor Desolvation:             0.000000
########## Receptor Hydrophobic:             0.000000
##########         Total Energy:           -45.380379
##########        Ligand Charge:             0.000000
##########            Arbitrary:    +999.9990
##########        Ligand Energy:             0.000000

@<TRIPOS>MOLECULE
smyd3_1028      none
   49    52     0     0     0
SMALL
USER_CHARGES

@<TRIPOS>ATOM
      1 C1         15.0734    2.9029   15.4537 C.3       1 <0>         0.0700
      2 N1         16.3602    3.4385   15.9050 N.am      1 <0>        -0.6100
      3 C2         16.4959    4.7590   16.1382 C.2       1 <0>         0.5700
      4 O1         17.5740    5.2973   15.9759 O.2       1 <0>        -0.5300
      5 C3         15.3359    5.5517   16.5905 C.ar      1 <0>        -0.1500
      6 C4         14.6853    5.2288   17.7843 C.ar      1 <0>        -0.0600
      7 C5         13.6012    5.9639   18.2027 C.ar      1 <0>        -0.1500
      8 C6         13.1409    7.0386   17.4392 C.ar      1 <0>         0.1700
      9 N2         12.0820    7.9145   17.6536 N.am      1 <0>        -0.6600
     10 C7         11.9650    8.8253   16.6731 C.2       1 <0>         0.5300
     11 O2         11.1336    9.7055   16.6034 O.2       1 <0>        -0.4900
     12 C8         13.0653    8.5465   15.6714 C.3       1 <0>        -0.1100
     13 C9         13.7935    7.3550   16.2505 C.ar      1 <0>        -0.1500
     14 C10        14.8761    6.6279   15.8243 C.ar      1 <0>        -0.0100
     15 C11        17.4993    2.5387   16.1028 C.3       1 <0>         0.1400
     16 C12        17.8285    1.8327   14.7847 C.3       1 <0>        -0.1300
     17 C13        18.9793    0.8496   15.0118 C.3       1 <0>         0.0600
     18 N3         18.5906   -0.1336   16.0309 N.pl3     1 <0>        -0.4900
     19 C14        19.5661   -1.1239   16.1685 C.ar      1 <0>         0.1100
     20 C15        20.8588   -0.7803   16.5436 C.ar      1 <0>        -0.1700
     21 C16        21.8196   -1.7623   16.6834 C.ar      1 <0>        -0.0900
     22 C17        21.4988   -3.0853   16.4403 C.ar      1 <0>        -0.1500
     23 C18        20.2142   -3.4302   16.0617 C.ar      1 <0>        -0.1000
     24 C19        19.2472   -2.4538   15.9251 C.ar      1 <0>        -0.1400
     25 C20        18.3155    0.5165   17.3185 C.3       1 <0>         0.0500
     26 C21        17.1450    1.4896   17.1602 C.3       1 <0>        -0.1300
     27 H1         15.1558    1.8244   15.3191 H         1 <0>         0.0600
     28 H2         14.3084    3.1185   16.1996 H         1 <0>         0.0800
     29 H3         14.7986    3.3672   14.5066 H         1 <0>         0.0800
     30 H4         15.0353    4.3990   18.3805 H         1 <0>         0.1400
     31 H5         13.1029    5.7086   19.1263 H         1 <0>         0.1400
     32 H6         11.4941    7.8723   18.4241 H         1 <0>         0.4200
     33 H7         13.7356    9.4023   15.5918 H         1 <0>         0.1300
     34 H8         12.6421    8.2995   14.6977 H         1 <0>         0.1300
     35 H9         15.3716    6.8855   14.8998 H         1 <0>         0.1400
     36 H10        18.3638    3.1134   16.4351 H         1 <0>         0.1000
     37 H11        16.9507    1.2905   14.4331 H         1 <0>         0.0800
     38 H12        18.1230    2.5718   14.0395 H         1 <0>         0.0800
     39 H13        19.8608    1.3943   15.3500 H         1 <0>         0.0500
     40 H14        19.2065    0.3348   14.0783 H         1 <0>         0.0900
     41 H15        21.1110    0.2533   16.7292 H         1 <0>         0.1300
     42 H16        22.8237   -1.4963   16.9790 H         1 <0>         0.1200
     43 H17        22.2532   -3.8509   16.5461 H         1 <0>         0.1200
     44 H18        19.9671   -4.4644   15.8724 H         1 <0>         0.1200
     45 H19        18.2443   -2.7238   15.6291 H         1 <0>         0.1200
     46 H20        19.2001    1.0628   17.6459 H         1 <0>         0.0500
     47 H21        18.0607   -0.2404   18.0602 H         1 <0>         0.0900
     48 H22        16.9511    1.9836   18.1123 H         1 <0>         0.0800
     49 H23        16.2564    0.9420   16.8461 H         1 <0>         0.0800
@<TRIPOS>BOND
     1    1    2 1
     2    1   27 1
     3    1   28 1
     4    1   29 1
     5    2    3 am
     6    2   15 1
     7    3    4 2
     8    3    5 1
     9    5   14 ar
    10    5    6 ar
    11    6    7 ar
    12    6   30 1
    13    7    8 ar
    14    7   31 1
    15    8   13 ar
    16    8    9 1
    17    9   10 am
    18    9   32 1
    19   10   11 2
    20   10   12 1
    21   12   13 1
    22   12   33 1
    23   12   34 1
    24   13   14 ar
    25   14   35 1
    26   15   26 1
    27   15   16 1
    28   15   36 1
    29   16   17 1
    30   16   37 1
    31   16   38 1
    32   17   18 1
    33   17   39 1
    34   17   40 1
    35   18   19 1
    36   18   25 1
    37   19   24 ar
    38   19   20 ar
    39   20   21 ar
    40   20   41 1
    41   21   22 ar
    42   21   42 1
    43   22   23 ar
    44   22   43 1
    45   23   24 ar
    46   23   44 1
    47   24   45 1
    48   25   26 1
    49   25   46 1
    50   25   47 1
    51   26   48 1
    52   26   49 1
##########                 Name:           smyd3_1029
##########          Protonation:                 none
##########               SMILES:   CN(C(=O)C1=CC=C2NC(=O)CC2=C1)C1CCN(C2=CC=[NH+]C=C2)CC1
##########            Long Name:   NO_LONG_NAME
##########          FlexRecCode: 1
##########               Number:                 2797
##########   Ligand Source File: /proj/zinc22/users/x_andlu/OGG1/revisions/docking/targets/smyd3/db2gen/split_par
##########                 Rank:                    1
##########               Setnum:                    7
##########             Matchnum:                    7
##########                Cloud:                    1
##########        Electrostatic:           -18.498562
##########                 Gist:             0.000000
##########        Van der Waals:           -36.943153
##########  Ligand Polar Desolv:            10.903303
########## Ligand Apolar Desolv:            -2.336129
##########      Internal Energy:             0.000000
##########      Receptor Energy:             0.000000
########## Receptor Desolvation:             0.000000
########## Receptor Hydrophobic:             0.000000
##########         Total Energy:           -46.874542
##########        Ligand Charge:             1.000000
##########            Arbitrary:    +999.9990
##########        Ligand Energy:             0.000000

@<TRIPOS>MOLECULE
smyd3_1029      none
   49    52     0     0     0
SMALL
USER_CHARGES

@<TRIPOS>ATOM
      1 C1         15.1793    3.0650   15.3944 C.3       1 <0>         0.0700
      2 N1         16.4555    3.5958   15.8801 N.am      1 <0>        -0.6100
      3 C2         16.5690    4.9037   16.1851 C.2       1 <0>         0.5700
      4 O1         17.6389    5.4671   16.0572 O.2       1 <0>        -0.5300
      5 C3         15.3947    5.6520   16.6746 C.ar      1 <0>        -0.1600
      6 C4         14.7453    5.2545   17.8463 C.ar      1 <0>        -0.0600
      7 C5         13.6479    5.9484   18.2992 C.ar      1 <0>        -0.1500
      8 C6         13.1730    7.0554   17.5930 C.ar      1 <0>         0.1800
      9 N2         12.0992    7.9013   17.8498 N.am      1 <0>        -0.6600
     10 C7         11.9709    8.8619   16.9196 C.2       1 <0>         0.5300
     11 O2         11.1256    9.7312   16.8940 O.2       1 <0>        -0.4900
     12 C8         13.0791    8.6555   15.9091 C.3       1 <0>        -0.1200
     13 C9         13.8246    7.4462   16.4261 C.ar      1 <0>        -0.1500
     14 C10        14.9202    6.7607   15.9658 C.ar      1 <0>        -0.0100
     15 C11        17.6083    2.7049   16.0340 C.3       1 <0>         0.1400
     16 C12        17.9538    2.0767   14.6809 C.3       1 <0>        -0.1300
     17 C13        19.1194    1.1014   14.8597 C.3       1 <0>         0.0600
     18 N3         18.7431    0.0581   15.8221 N.pl3     1 <0>        -0.4700
     19 C14        19.7303   -0.9189   15.9100 C.ar      1 <0>         0.2400
     20 C15        21.0263   -0.5927   16.3089 C.ar      1 <0>        -0.1900
     21 C16        21.9739   -1.5912   16.3890 C.ar      1 <0>         0.1600
     22 N4         21.6699   -2.8388   16.0832 N.ar      1 <0>        -0.4700
     23 H1         22.3578   -3.5200   16.1451 H         1 <0>         0.4500
     24 C17        20.4568   -3.1864   15.6960 C.ar      1 <0>         0.1500
     25 C18        19.4508   -2.2488   15.5959 C.ar      1 <0>        -0.1600
     26 C19        18.4527    0.6330   17.1418 C.3       1 <0>         0.0400
     27 C20        17.2671    1.5943   17.0312 C.3       1 <0>        -0.1300
     28 H2         15.2796    1.9968   15.2021 H         1 <0>         0.0600
     29 H3         14.4080    3.2276   16.1474 H         1 <0>         0.0800
     30 H4         14.9006    3.5756   14.4726 H         1 <0>         0.0800
     31 H5         15.1067    4.3994   18.3982 H         1 <0>         0.1400
     32 H6         13.1507    5.6354   19.2053 H         1 <0>         0.1400
     33 H7         11.5094    7.8080   18.6143 H         1 <0>         0.4200
     34 H8         13.7357    9.5251   15.8789 H         1 <0>         0.1300
     35 H9         12.6634    8.4549   14.9217 H         1 <0>         0.1300
     36 H10        15.4147    7.0759   15.0589 H         1 <0>         0.1400
     37 H11        18.4621    3.2744   16.4009 H         1 <0>         0.1100
     38 H12        17.0863    1.5405   14.2965 H         1 <0>         0.0900
     39 H13        18.2390    2.8598   13.9783 H         1 <0>         0.0900
     40 H14        19.9907    1.6409   15.2311 H         1 <0>         0.0700
     41 H15        19.3584    0.6417   13.9007 H         1 <0>         0.1000
     42 H16        21.2830    0.4270   16.5558 H         1 <0>         0.1800
     43 H17        22.9788   -1.3488   16.7016 H         1 <0>         0.2100
     44 H18        20.2496   -4.2186   15.4547 H         1 <0>         0.2100
     45 H19        18.4601   -2.5401   15.2792 H         1 <0>         0.1800
     46 H20        19.3271    1.1745   17.5025 H         1 <0>         0.0700
     47 H21        18.2074   -0.1672   17.8403 H         1 <0>         0.1000
     48 H22        17.0618    2.0327   18.0078 H         1 <0>         0.0900
     49 H23        16.3883    1.0509   16.6841 H         1 <0>         0.0900
@<TRIPOS>BOND
     1    1    2 1
     2    1   28 1
     3    1   29 1
     4    1   30 1
     5    2    3 am
     6    2   15 1
     7    3    4 2
     8    3    5 1
     9    5   14 ar
    10    5    6 ar
    11    6    7 ar
    12    6   31 1
    13    7    8 ar
    14    7   32 1
    15    8   13 ar
    16    8    9 1
    17    9   10 am
    18    9   33 1
    19   10   11 2
    20   10   12 1
    21   12   13 1
    22   12   34 1
    23   12   35 1
    24   13   14 ar
    25   14   36 1
    26   15   27 1
    27   15   16 1
    28   15   37 1
    29   16   17 1
    30   16   38 1
    31   16   39 1
    32   17   18 1
    33   17   40 1
    34   17   41 1
    35   18   19 1
    36   18   26 1
    37   19   25 ar
    38   19   20 ar
    39   20   21 ar
    40   20   42 1
    41   21   22 ar
    42   21   43 1
    43   22   23 1
    44   22   24 ar
    45   24   25 ar
    46   24   44 1
    47   25   45 1
    48   26   27 1
    49   26   46 1
    50   26   47 1
    51   27   48 1
    52   27   49 1
##########                 Name:           smyd3_1030
##########          Protonation:                 none
##########               SMILES:   CN(C(=O)C1=CC=C2NC(=O)CC2=C1)C1CCN(C2=NC=CC=N2)CC1
##########            Long Name:   NO_LONG_NAME
##########          FlexRecCode: 1
##########               Number:                 2800
##########   Ligand Source File: /proj/zinc22/users/x_andlu/OGG1/revisions/docking/targets/smyd3/db2gen/split_par
##########                 Rank:                    1
##########               Setnum:                   19
##########             Matchnum:                    6
##########                Cloud:                    1
##########        Electrostatic:           -12.575307
##########                 Gist:             0.000000
##########        Van der Waals:           -36.490959
##########  Ligand Polar Desolv:             7.232471
########## Ligand Apolar Desolv:            -2.479310
##########      Internal Energy:             0.000000
##########      Receptor Energy:             0.000000
########## Receptor Desolvation:             0.000000
########## Receptor Hydrophobic:             0.000000
##########         Total Energy:           -44.313103
##########        Ligand Charge:             0.000000
##########            Arbitrary:    +999.9990
##########        Ligand Energy:             0.000000

@<TRIPOS>MOLECULE
smyd3_1030      none
   47    50     0     0     0
SMALL
USER_CHARGES

@<TRIPOS>ATOM
      1 C1         15.0160    2.8807   15.4589 C.3       1 <0>         0.0700
      2 N1         16.3045    3.4053   15.9182 N.am      1 <0>        -0.6100
      3 C2         16.4487    4.7239   16.1565 C.2       1 <0>         0.5700
      4 O1         17.5313    5.2550   16.0012 O.2       1 <0>        -0.5300
      5 C3         15.2923    5.5235   16.6061 C.ar      1 <0>        -0.1500
      6 C4         14.6378    5.2052   17.7990 C.ar      1 <0>        -0.0300
      7 C5         13.5610    5.9507   18.2181 C.ar      1 <0>        -0.1400
      8 C6         13.1125    7.0315   17.4561 C.ar      1 <0>         0.1700
      9 N2         12.0626    7.9180   17.6717 N.am      1 <0>        -0.6600
     10 C7         11.9553    8.8316   16.6928 C.2       1 <0>         0.5300
     11 O2         11.1335    9.7210   16.6244 O.2       1 <0>        -0.5000
     12 C8         13.0530    8.5431   15.6909 C.3       1 <0>        -0.1100
     13 C9         13.7719    7.3443   16.2667 C.ar      1 <0>        -0.1500
     14 C10        14.8439    6.6057   15.8414 C.ar      1 <0>        -0.0400
     15 C11        17.4360    2.4967   16.1184 C.3       1 <0>         0.1400
     16 C12        17.7665    1.7926   14.7993 C.3       1 <0>        -0.1200
     17 C13        18.9088    0.8004   15.0285 C.3       1 <0>         0.0700
     18 N3         18.5083   -0.1834   16.0423 N.pl3     1 <0>        -0.4600
     19 C14        19.4670   -1.1722   16.1800 C.ar      1 <0>         0.4900
     20 N4         20.6954   -0.8355   16.5456 N.ar      1 <0>        -0.5500
     21 C15        21.6336   -1.7566   16.6916 C.ar      1 <0>         0.1700
     22 C16        21.3215   -3.0845   16.4460 C.ar      1 <0>        -0.2600
     23 C17        20.0285   -3.4009   16.0599 C.ar      1 <0>         0.1800
     24 N5         19.1362   -2.4319   15.9378 N.ar      1 <0>        -0.5300
     25 C18        18.2317    0.4644   17.3309 C.3       1 <0>         0.0700
     26 C19        17.0691    1.4465   17.1705 C.3       1 <0>        -0.1300
     27 H1         15.0913    1.8020   15.3212 H         1 <0>         0.0600
     28 H2         14.2490    3.0993   16.2019 H         1 <0>         0.0800
     29 H3         14.7492    3.3501   14.5121 H         1 <0>         0.0800
     30 H4         14.9790    4.3709   18.3939 H         1 <0>         0.1400
     31 H5         13.0601    5.6993   19.1412 H         1 <0>         0.1400
     32 H6         11.4740    7.8806   18.4418 H         1 <0>         0.4200
     33 H7         12.6277    8.3020   14.7167 H         1 <0>         0.1300
     34 H8         13.7307    9.3931   15.6111 H         1 <0>         0.1300
     35 H9         15.3430    6.8600   14.9179 H         1 <0>         0.1400
     36 H10        18.3032    3.0639   16.4567 H         1 <0>         0.1000
     37 H11        16.8864    1.2579   14.4418 H         1 <0>         0.0800
     38 H12        18.0698    2.5320   14.0582 H         1 <0>         0.0800
     39 H13        19.7927    1.3375   15.3728 H         1 <0>         0.0500
     40 H14        19.1369    0.2872   14.0944 H         1 <0>         0.1000
     41 H15        22.6317   -1.4766   16.9945 H         1 <0>         0.1700
     42 H16        22.0694   -3.8562   16.5533 H         1 <0>         0.1500
     43 H17        19.7530   -4.4259   15.8607 H         1 <0>         0.1700
     44 H18        19.1188    1.0030   17.6644 H         1 <0>         0.0600
     45 H19        17.9679   -0.2932   18.0689 H         1 <0>         0.0900
     46 H20        16.8743    1.9386   18.1234 H         1 <0>         0.0800
     47 H21        16.1780    0.9064   16.8502 H         1 <0>         0.0800
@<TRIPOS>BOND
     1    1    2 1
     2    1   27 1
     3    1   28 1
     4    1   29 1
     5    2    3 am
     6    2   15 1
     7    3    4 2
     8    3    5 1
     9    5   14 ar
    10    5    6 ar
    11    6    7 ar
    12    6   30 1
    13    7    8 ar
    14    7   31 1
    15    8   13 ar
    16    8    9 1
    17    9   10 am
    18    9   32 1
    19   10   11 2
    20   10   12 1
    21   12   13 1
    22   12   33 1
    23   12   34 1
    24   13   14 ar
    25   14   35 1
    26   15   26 1
    27   15   16 1
    28   15   36 1
    29   16   17 1
    30   16   37 1
    31   16   38 1
    32   17   18 1
    33   17   39 1
    34   17   40 1
    35   18   19 1
    36   18   25 1
    37   19   24 ar
    38   19   20 ar
    39   20   21 ar
    40   21   22 ar
    41   21   41 1
    42   22   23 ar
    43   22   42 1
    44   23   24 ar
    45   23   43 1
    46   25   26 1
    47   25   44 1
    48   25   45 1
    49   26   46 1
    50   26   47 1
##########                 Name:           smyd3_1031
##########          Protonation:                 none
##########               SMILES:   CN(C(=O)C1=CC=C2NC(=O)CC2=C1)C1CCN(C2=CC=CN=N2)CC1
##########            Long Name:   NO_LONG_NAME
##########          FlexRecCode: 1
##########               Number:                 2803
##########   Ligand Source File: /proj/zinc22/users/x_andlu/OGG1/revisions/docking/targets/smyd3/db2gen/split_par
##########                 Rank:                    1
##########               Setnum:                   50
##########             Matchnum:                   16
##########                Cloud:                    1
##########        Electrostatic:           -13.633621
##########                 Gist:             0.000000
##########        Van der Waals:           -36.432915
##########  Ligand Polar Desolv:             8.108049
########## Ligand Apolar Desolv:            -1.899740
##########      Internal Energy:             0.000000
##########      Receptor Energy:             0.000000
########## Receptor Desolvation:             0.000000
########## Receptor Hydrophobic:             0.000000
##########         Total Energy:           -43.858227
##########        Ligand Charge:             0.000000
##########            Arbitrary:    +999.9990
##########        Ligand Energy:             0.000000

@<TRIPOS>MOLECULE
smyd3_1031      none
   47    50     0     0     0
SMALL
USER_CHARGES

@<TRIPOS>ATOM
      1 C1         14.9401    2.8677   15.5443 C.3       1 <0>         0.0700
      2 N1         16.2385    3.3980   15.9677 N.am      1 <0>        -0.6100
      3 C2         16.3934    4.7221   16.1658 C.2       1 <0>         0.5700
      4 O1         17.4761    5.2424   15.9780 O.2       1 <0>        -0.5300
      5 C3         15.2485    5.5407   16.6106 C.ar      1 <0>        -0.1500
      6 C4         14.6117    5.2604   17.8224 C.ar      1 <0>        -0.0300
      7 C5         13.5457    6.0237   18.2370 C.ar      1 <0>        -0.1400
      8 C6         13.0905    7.0848   17.4516 C.ar      1 <0>         0.1700
      9 N2         12.0489    7.9830   17.6583 N.am      1 <0>        -0.6600
     10 C7         11.9305    8.8688   16.6554 C.2       1 <0>         0.5300
     11 O2         11.1124    9.7604   16.5747 O.2       1 <0>        -0.4900
     12 C8         13.0105    8.5455   15.6449 C.3       1 <0>        -0.1100
     13 C9         13.7324    7.3596   16.2433 C.ar      1 <0>        -0.1500
     14 C10        14.7935    6.6031   15.8224 C.ar      1 <0>        -0.0400
     15 C11        17.3684    2.4891   16.1758 C.3       1 <0>         0.1400
     16 C12        17.6739    1.7457   14.8724 C.3       1 <0>        -0.1200
     17 C13        18.8146    0.7541   15.1118 C.3       1 <0>         0.0600
     18 N3         18.4254   -0.1981   16.1597 N.pl3     1 <0>        -0.4700
     19 C14        19.3855   -1.1925   16.3111 C.ar      1 <0>         0.2500
     20 C15        20.6920   -0.8568   16.6644 C.ar      1 <0>        -0.1300
     21 C16        21.6097   -1.8855   16.8086 C.ar      1 <0>        -0.1000
     22 C17        21.1756   -3.1837   16.5808 C.ar      1 <0>         0.0200
     23 N4         19.9212   -3.4102   16.2446 N.ar      1 <0>        -0.2200
     24 N5         19.0646   -2.4631   16.1148 N.ar      1 <0>        -0.2800
     25 C18        18.1730    0.4879   17.4334 C.3       1 <0>         0.0700
     26 C19        17.0130    1.4716   17.2634 C.3       1 <0>        -0.1300
     27 H1         15.0076    1.7852   15.4364 H         1 <0>         0.0600
     28 H2         14.1863    3.1119   16.2928 H         1 <0>         0.0800
     29 H3         14.6605    3.3114   14.5888 H         1 <0>         0.0800
     30 H4         14.9581    4.4416   18.4355 H         1 <0>         0.1400
     31 H5         13.0584    5.8017   19.1748 H         1 <0>         0.1400
     32 H6         11.4726    7.9709   18.4385 H         1 <0>         0.4200
     33 H7         12.5683    8.2790   14.6849 H         1 <0>         0.1300
     34 H8         13.6912    9.3890   15.5299 H         1 <0>         0.1300
     35 H9         15.2789    6.8280   14.8841 H         1 <0>         0.1400
     36 H10        18.2438    3.0609   16.4838 H         1 <0>         0.1000
     37 H11        16.7854    1.2060   14.5445 H         1 <0>         0.0800
     38 H12        17.9691    2.4619   14.1056 H         1 <0>         0.0800
     39 H13        19.7068    1.2958   15.4264 H         1 <0>         0.0500
     40 H14        19.0250    0.2130   14.1893 H         1 <0>         0.0900
     41 H15        20.9787    0.1720   16.8250 H         1 <0>         0.1500
     42 H16        22.6337   -1.6822   17.0852 H         1 <0>         0.1500
     43 H17        21.8653   -4.0088   16.6795 H         1 <0>         0.1700
     44 H18        19.0681    1.0308   17.7371 H         1 <0>         0.0600
     45 H19        17.9173   -0.2466   18.1969 H         1 <0>         0.1000
     46 H20        16.8362    1.9919   18.2047 H         1 <0>         0.0800
     47 H21        16.1141    0.9276   16.9730 H         1 <0>         0.0800
@<TRIPOS>BOND
     1    1    2 1
     2    1   27 1
     3    1   28 1
     4    1   29 1
     5    2    3 am
     6    2   15 1
     7    3    4 2
     8    3    5 1
     9    5   14 ar
    10    5    6 ar
    11    6    7 ar
    12    6   30 1
    13    7    8 ar
    14    7   31 1
    15    8   13 ar
    16    8    9 1
    17    9   10 am
    18    9   32 1
    19   10   11 2
    20   10   12 1
    21   12   13 1
    22   12   33 1
    23   12   34 1
    24   13   14 ar
    25   14   35 1
    26   15   26 1
    27   15   16 1
    28   15   36 1
    29   16   17 1
    30   16   37 1
    31   16   38 1
    32   17   18 1
    33   17   39 1
    34   17   40 1
    35   18   19 1
    36   18   25 1
    37   19   24 ar
    38   19   20 ar
    39   20   21 ar
    40   20   41 1
    41   21   22 ar
    42   21   42 1
    43   22   23 ar
    44   22   43 1
    45   23   24 ar
    46   25   26 1
    47   25   44 1
    48   25   45 1
    49   26   46 1
    50   26   47 1
##########                 Name:           smyd3_1037
##########          Protonation:                 none
##########               SMILES:   CN(C(=O)C1=CC=C2NC(=O)CC2=C1)C1CC[NH+](C2CCOCC2)CC1
##########            Long Name:   NO_LONG_NAME
##########          FlexRecCode: 1
##########               Number:                 2817
##########   Ligand Source File: /proj/zinc22/users/x_andlu/OGG1/revisions/docking/targets/smyd3/db2gen/split_par
##########                 Rank:                    1
##########               Setnum:                   28
##########             Matchnum:                   19
##########                Cloud:                    1
##########        Electrostatic:           -20.230343
##########                 Gist:             0.000000
##########        Van der Waals:           -36.226078
##########  Ligand Polar Desolv:            10.188181
########## Ligand Apolar Desolv:            -2.393052
##########      Internal Energy:             0.000000
##########      Receptor Energy:             0.000000
########## Receptor Desolvation:             0.000000
########## Receptor Hydrophobic:             0.000000
##########         Total Energy:           -48.661293
##########        Ligand Charge:             1.000000
##########            Arbitrary:    +999.9990
##########        Ligand Energy:             0.000000

@<TRIPOS>MOLECULE
smyd3_1037      none
   54    57     0     0     0
SMALL
USER_CHARGES

@<TRIPOS>ATOM
      1 C1         15.0854    2.9390   15.4682 C.3       1 <0>         0.0600
      2 N1         16.3719    3.4732   15.9219 N.am      1 <0>        -0.6100
      3 C2         16.5071    4.7926   16.1612 C.2       1 <0>         0.5800
      4 O1         17.5848    5.3322   16.0013 O.2       1 <0>        -0.5200
      5 C3         15.3468    5.5826   16.6174 C.ar      1 <0>        -0.1700
      6 C4         14.7000    5.2573   17.8125 C.ar      1 <0>        -0.0200
      7 C5         13.6185    5.9929   18.2368 C.ar      1 <0>        -0.1400
      8 C6         13.1575    7.0707   17.4783 C.ar      1 <0>         0.1800
      9 N2         12.1005    7.9475   17.6989 N.am      1 <0>        -0.6600
     10 C7         11.9815    8.8614   16.7217 C.2       1 <0>         0.5300
     11 O2         11.1509    9.7428   16.6573 O.2       1 <0>        -0.4900
     12 C8         13.0782    8.5842   15.7155 C.3       1 <0>        -0.1100
     13 C9         13.8099    7.3912   16.2870 C.ar      1 <0>        -0.1500
     14 C10        14.8863    6.6622   15.8561 C.ar      1 <0>        -0.0400
     15 C11        17.5115    2.5732   16.1152 C.3       1 <0>         0.1300
     16 C12        17.8413    1.8732   14.7937 C.3       1 <0>        -0.1600
     17 C13        18.9787    0.8752   15.0216 C.3       1 <0>        -0.0100
     18 N3         18.5696   -0.1217   16.0182 N.4       1 <0>        -0.3800
     19 H1         17.7256   -0.5796   15.7076 H         1 <0>         0.4200
     20 C14        19.6353   -1.1205   16.1758 C.3       1 <0>         0.0200
     21 C15        20.9994   -0.4246   16.1388 C.3       1 <0>        -0.1800
     22 C16        22.1047   -1.4808   16.2223 C.3       1 <0>         0.0600
     23 O3         21.9574   -2.4109   15.1474 O.3       1 <0>        -0.3700
     24 C17        20.7201   -3.1257   15.1598 C.3       1 <0>         0.0600
     25 C18        19.5592   -2.1359   15.0314 C.3       1 <0>        -0.1800
     26 C19        18.3222    0.5350   17.3073 C.3       1 <0>        -0.0100
     27 C20        17.1582    1.5184   17.1678 C.3       1 <0>        -0.1600
     28 H2         15.1684    1.8613   15.3287 H         1 <0>         0.0700
     29 H3         14.3204    3.1510   16.2151 H         1 <0>         0.0700
     30 H4         14.8103    3.4078   14.5233 H         1 <0>         0.0900
     31 H5         15.0505    4.4249   18.4047 H         1 <0>         0.1400
     32 H6         13.1228    5.7354   19.1612 H         1 <0>         0.1400
     33 H7         11.5153    7.9037   18.4713 H         1 <0>         0.4200
     34 H8         12.6515    8.3409   14.7424 H         1 <0>         0.1300
     35 H9         13.7479    9.4405   15.6346 H         1 <0>         0.1300
     36 H10        15.3790    6.9217   14.9308 H         1 <0>         0.1400
     37 H11        18.3761    3.1465   16.4498 H         1 <0>         0.1200
     38 H12        16.9601    1.3428   14.4330 H         1 <0>         0.0900
     39 H13        18.1483    2.6144   14.0559 H         1 <0>         0.1200
     40 H14        19.8600    1.4067   15.3808 H         1 <0>         0.1300
     41 H15        19.2148    0.3741   14.0828 H         1 <0>         0.1400
     42 H16        19.5144   -1.6355   17.1289 H         1 <0>         0.1400
     43 H17        21.0990    0.1323   15.2071 H         1 <0>         0.1000
     44 H18        21.0825    0.2592   16.9835 H         1 <0>         0.1000
     45 H19        22.0299   -2.0089   17.1728 H         1 <0>         0.0700
     46 H20        23.0778   -0.9949   16.1518 H         1 <0>         0.1200
     47 H21        20.6272   -3.6754   16.0965 H         1 <0>         0.0700
     48 H22        20.6957   -3.8250   14.3240 H         1 <0>         0.1200
     49 H23        18.6133   -2.6749   15.0851 H         1 <0>         0.1000
     50 H24        19.6278   -1.6146   14.0767 H         1 <0>         0.1000
     51 H25        19.2173    1.0738   17.6178 H         1 <0>         0.1300
     52 H26        18.0739   -0.2173   18.0560 H         1 <0>         0.1400
     53 H27        16.9773    2.0064   18.1256 H         1 <0>         0.1200
     54 H28        16.2623    0.9805   16.8577 H         1 <0>         0.0900
@<TRIPOS>BOND
     1    1    2 1
     2    1   28 1
     3    1   29 1
     4    1   30 1
     5    2    3 am
     6    2   15 1
     7    3    4 2
     8    3    5 1
     9    5   14 ar
    10    5    6 ar
    11    6    7 ar
    12    6   31 1
    13    7    8 ar
    14    7   32 1
    15    8   13 ar
    16    8    9 1
    17    9   10 am
    18    9   33 1
    19   10   11 2
    20   10   12 1
    21   12   13 1
    22   12   34 1
    23   12   35 1
    24   13   14 ar
    25   14   36 1
    26   15   27 1
    27   15   16 1
    28   15   37 1
    29   16   17 1
    30   16   38 1
    31   16   39 1
    32   17   18 1
    33   17   40 1
    34   17   41 1
    35   18   19 1
    36   18   20 1
    37   18   26 1
    38   20   25 1
    39   20   21 1
    40   20   42 1
    41   21   22 1
    42   21   43 1
    43   21   44 1
    44   22   23 1
    45   22   45 1
    46   22   46 1
    47   23   24 1
    48   24   25 1
    49   24   47 1
    50   24   48 1
    51   25   49 1
    52   25   50 1
    53   26   27 1
    54   26   51 1
    55   26   52 1
    56   27   53 1
    57   27   54 1
##########                 Name:           smyd3_1045
##########          Protonation:                 none
##########               SMILES:   C[NH+]1CCC(N(CC2=CC=CO2)C(=O)C2=CC=C3NC(=O)CC3=C2)CC1
##########            Long Name:   NO_LONG_NAME
##########          FlexRecCode: 1
##########               Number:                 2859
##########   Ligand Source File: /proj/zinc22/users/x_andlu/OGG1/revisions/docking/targets/smyd3/db2gen/split_par
##########                 Rank:                    1
##########               Setnum:                   84
##########             Matchnum:                    3
##########                Cloud:                    1
##########        Electrostatic:           -16.414713
##########                 Gist:             0.000000
##########        Van der Waals:           -34.891911
##########  Ligand Polar Desolv:             8.949903
########## Ligand Apolar Desolv:            -3.071570
##########      Internal Energy:             0.000000
##########      Receptor Energy:             0.000000
########## Receptor Desolvation:             0.000000
########## Receptor Hydrophobic:             0.000000
##########         Total Energy:           -45.428295
##########        Ligand Charge:             1.000000
##########            Arbitrary:    +999.9990
##########        Ligand Energy:             0.000000

@<TRIPOS>MOLECULE
smyd3_1045      none
   50    53     0     0     0
SMALL
USER_CHARGES

@<TRIPOS>ATOM
      1 C1         20.9723    0.2637   16.2319 C.3       1 <0>        -0.0500
      2 N1         19.8249    1.1750   16.1269 N.4       1 <0>        -0.3900
      3 H1         20.1420    2.1269   16.2329 H         1 <0>         0.4300
      4 C2         19.1936    1.0146   14.8115 C.3       1 <0>         0.0000
      5 C3         18.0478    2.0183   14.6658 C.3       1 <0>        -0.1700
      6 C4         17.0120    1.7657   15.7651 C.3       1 <0>         0.1400
      7 N2         15.9501    2.7711   15.6781 N.am      1 <0>        -0.6000
      8 C5         14.5640    2.3547   15.4506 C.3       1 <0>         0.1800
      9 C6         14.3452    0.9886   16.0481 C.2       1 <0>        -0.0500
     10 C7         13.9322    0.7359   17.3031 C.2       1 <0>        -0.1800
     11 C8         13.8639   -0.6699   17.4364 C.2       1 <0>        -0.2200
     12 C9         14.2394   -1.1922   16.2552 C.2       1 <0>        -0.0200
     13 O1         14.5242   -0.1828   15.4162 O.3       1 <0>        -0.1700
     14 C10        16.2482    4.0791   15.8073 C.2       1 <0>         0.5900
     15 O2         17.3374    4.4917   15.4587 O.2       1 <0>        -0.5300
     16 C11        15.2524    5.0106   16.3722 C.ar      1 <0>        -0.1700
     17 C12        14.7641    4.8183   17.6673 C.ar      1 <0>        -0.0300
     18 C13        13.8364    5.6864   18.1933 C.ar      1 <0>        -0.1400
     19 C14        13.3751    6.7672   17.4393 C.ar      1 <0>         0.1800
     20 N3         12.4550    7.7625   17.7515 N.am      1 <0>        -0.6600
     21 C15        12.2809    8.6327   16.7431 C.2       1 <0>         0.5300
     22 O3         11.5416    9.5941   16.7410 O.2       1 <0>        -0.4800
     23 C16        13.1807    8.1882   15.6097 C.3       1 <0>        -0.1200
     24 C17        13.8689    6.9543   16.1475 C.ar      1 <0>        -0.1500
     25 C18        14.7910    6.0928   15.6152 C.ar      1 <0>        -0.0400
     26 C19        17.6966    1.8607   17.1316 C.3       1 <0>        -0.1700
     27 C20        18.8566    0.8641   17.1853 C.3       1 <0>         0.0000
     28 H2         20.6308   -0.7651   16.1175 H         1 <0>         0.1200
     29 H3         21.6939    0.4963   15.4487 H         1 <0>         0.1200
     30 H4         21.4436    0.3838   17.2074 H         1 <0>         0.1200
     31 H5         18.8025    0.0015   14.7177 H         1 <0>         0.1300
     32 H6         19.9329    1.1921   14.0306 H         1 <0>         0.1300
     33 H7         17.5792    1.8966   13.6891 H         1 <0>         0.1100
     34 H8         18.4378    3.0319   14.7590 H         1 <0>         0.1100
     35 H9         16.5836    0.7712   15.6405 H         1 <0>         0.1100
     36 H10        13.8882    3.0693   15.9204 H         1 <0>         0.1100
     37 H11        14.3668    2.3184   14.3792 H         1 <0>         0.1200
     38 H12        13.6983    1.4667   18.0630 H         1 <0>         0.1500
     39 H13        13.5675   -1.2191   18.3179 H         1 <0>         0.1500
     40 H14        14.2969   -2.2446   16.0196 H         1 <0>         0.2100
     41 H15        15.1164    3.9848   18.2569 H         1 <0>         0.1400
     42 H16        13.4630    5.5315   19.1949 H         1 <0>         0.1400
     43 H17        11.9916    7.8218   18.6017 H         1 <0>         0.4200
     44 H18        12.5904    7.9424   14.7269 H         1 <0>         0.1300
     45 H19        13.9117    8.9622   15.3759 H         1 <0>         0.1300
     46 H20        15.1617    6.2500   14.6132 H         1 <0>         0.1400
     47 H21        18.0791    2.8710   17.2776 H         1 <0>         0.1100
     48 H22        16.9772    1.6264   17.9162 H         1 <0>         0.1100
     49 H23        18.4728   -0.1457   17.0410 H         1 <0>         0.1300
     50 H24        19.3469    0.9306   18.1565 H         1 <0>         0.1300
@<TRIPOS>BOND
     1    1    2 1
     2    1   28 1
     3    1   29 1
     4    1   30 1
     5    2    3 1
     6    2   27 1
     7    2    4 1
     8    4    5 1
     9    4   31 1
    10    4   32 1
    11    5    6 1
    12    5   33 1
    13    5   34 1
    14    6    7 1
    15    6   26 1
    16    6   35 1
    17    7    8 1
    18    7   14 am
    19    8    9 1
    20    8   36 1
    21    8   37 1
    22    9   13 1
    23    9   10 2
    24   10   11 1
    25   10   38 1
    26   11   12 2
    27   11   39 1
    28   12   13 1
    29   12   40 1
    30   14   15 2
    31   14   16 1
    32   16   25 ar
    33   16   17 ar
    34   17   18 ar
    35   17   41 1
    36   18   19 ar
    37   18   42 1
    38   19   24 ar
    39   19   20 1
    40   20   21 am
    41   20   43 1
    42   21   22 2
    43   21   23 1
    44   23   24 1
    45   23   44 1
    46   23   45 1
    47   24   25 ar
    48   25   46 1
    49   26   27 1
    50   26   47 1
    51   26   48 1
    52   27   49 1
    53   27   50 1
